* NGSPICE file created from pbias_vb123.ext - technology: sky130A

.subckt pbias_vb123 VB2 VB3 AVDD VB1
X0 VB2 VB1 a_3228_3476# AVDD sky130_fd_pr__pfet_01v8_hvt ad=0.145 pd=1.29 as=0.145 ps=1.29 w=1 l=1
X1 a_2712_1968# VB1 VB2 AVDD sky130_fd_pr__pfet_01v8_hvt ad=0.145 pd=1.29 as=0.29 ps=2.58 w=1 l=1
X2 a_3228_7101# AVDD AVDD AVDD sky130_fd_pr__pfet_01v8_hvt ad=0.145 pd=1.29 as=0.145 ps=1.29 w=1 l=1
X3 AVDD VB1 a_3744_n5476# AVDD sky130_fd_pr__pfet_01v8_hvt ad=0.29 pd=2.58 as=0.145 ps=1.29 w=1 l=1
X4 AVDD AVDD a_777_4980# AVDD sky130_fd_pr__pfet_01v8_hvt ad=0.29 pd=2.58 as=0.145 ps=1.29 w=1 l=1
X5 VB2 VB1 a_4454_n5476# AVDD sky130_fd_pr__pfet_01v8_hvt ad=0.145 pd=1.29 as=0.145 ps=1.29 w=1 l=1
X6 AVDD VB1 a_2712_n5476# AVDD sky130_fd_pr__pfet_01v8_hvt ad=0.145 pd=1.29 as=0.145 ps=1.29 w=1 l=1
X7 a_2002_n6844# AVDD AVDD AVDD sky130_fd_pr__pfet_01v8_hvt ad=0.145 pd=1.29 as=0.145 ps=1.29 w=1 l=1
X8 a_777_4980# AVDD AVDD AVDD sky130_fd_pr__pfet_01v8_hvt ad=0.145 pd=1.29 as=0.29 ps=2.58 w=1 l=1
X9 AVDD VB1 a_4970_2589# AVDD sky130_fd_pr__pfet_01v8_hvt ad=0.29 pd=2.58 as=0.145 ps=1.29 w=1 l=1
X10 AVDD AVDD a_5680_2589# AVDD sky130_fd_pr__pfet_01v8_hvt ad=0.29 pd=2.58 as=0.145 ps=1.29 w=1 l=1
X11 a_1486_599# VB1 AVDD AVDD sky130_fd_pr__pfet_01v8_hvt ad=0.145 pd=1.29 as=0.29 ps=2.58 w=1 l=1
X12 a_2712_n6844# AVDD AVDD AVDD sky130_fd_pr__pfet_01v8_hvt ad=0.145 pd=1.29 as=0.29 ps=2.58 w=1 l=1
X13 AVDD VB1 a_3744_4980# AVDD sky130_fd_pr__pfet_01v8_hvt ad=0.29 pd=2.58 as=0.145 ps=1.29 w=1 l=1
X14 a_3228_599# VB1 AVDD AVDD sky130_fd_pr__pfet_01v8_hvt ad=0.145 pd=1.29 as=0.145 ps=1.29 w=1 l=1
X15 a_2002_6484# VB1 VB3 AVDD sky130_fd_pr__pfet_01v8_hvt ad=0.145 pd=1.29 as=0.145 ps=1.29 w=1 l=1
X16 a_2712_4093# VB1 VB3 AVDD sky130_fd_pr__pfet_01v8_hvt ad=0.145 pd=1.29 as=0.29 ps=2.58 w=1 l=1
X17 a_4970_1968# VB1 VB3 AVDD sky130_fd_pr__pfet_01v8_hvt ad=0.145 pd=1.29 as=0.145 ps=1.29 w=1 l=1
X18 AVDD VB1 a_2002_5597# AVDD sky130_fd_pr__pfet_01v8_hvt ad=0.29 pd=2.58 as=0.145 ps=1.29 w=1 l=1
X19 AVDD VB1 a_2712_5597# AVDD sky130_fd_pr__pfet_01v8_hvt ad=0.145 pd=1.29 as=0.145 ps=1.29 w=1 l=1
X20 a_5680_1220# AVDD AVDD AVDD sky130_fd_pr__pfet_01v8_hvt ad=0.145 pd=1.29 as=0.29 ps=2.58 w=1 l=1
X21 a_3228_n962# VB1 AVDD AVDD sky130_fd_pr__pfet_01v8_hvt ad=0.145 pd=1.29 as=0.145 ps=1.29 w=1 l=1
X22 a_777_n1581# AVDD AVDD AVDD sky130_fd_pr__pfet_01v8_hvt ad=0.145 pd=1.29 as=0.29 ps=2.58 w=1 l=1
X23 a_2002_n5476# VB1 VB2 AVDD sky130_fd_pr__pfet_01v8_hvt ad=0.145 pd=1.29 as=0.145 ps=1.29 w=1 l=1
X24 a_3744_4980# VB1 VB2 AVDD sky130_fd_pr__pfet_01v8_hvt ad=0.145 pd=1.29 as=0.145 ps=1.29 w=1 l=1
X25 a_2002_n495# VB1 VB1 AVDD sky130_fd_pr__pfet_01v8_hvt ad=0.145 pd=1.29 as=0.145 ps=1.29 w=1 l=1
X26 a_2712_n5476# VB1 VB3 AVDD sky130_fd_pr__pfet_01v8_hvt ad=0.145 pd=1.29 as=0.29 ps=2.58 w=1 l=1
X27 VB3 VB1 a_1486_6484# AVDD sky130_fd_pr__pfet_01v8_hvt ad=0.145 pd=1.29 as=0.145 ps=1.29 w=1 l=1
X28 a_4970_n2468# VB1 VB2 AVDD sky130_fd_pr__pfet_01v8_hvt ad=0.145 pd=1.29 as=0.145 ps=1.29 w=1 l=1
X29 VB2 VB1 a_3228_n3085# AVDD sky130_fd_pr__pfet_01v8_hvt ad=0.145 pd=1.29 as=0.145 ps=1.29 w=1 l=1
X30 AVDD VB1 a_2002_n3972# AVDD sky130_fd_pr__pfet_01v8_hvt ad=0.29 pd=2.58 as=0.145 ps=1.29 w=1 l=1
X31 AVDD VB1 a_4970_n3085# AVDD sky130_fd_pr__pfet_01v8_hvt ad=0.29 pd=2.58 as=0.145 ps=1.29 w=1 l=1
X32 VB2 VB1 a_3228_4980# AVDD sky130_fd_pr__pfet_01v8_hvt ad=0.145 pd=1.29 as=0.145 ps=1.29 w=1 l=1
X33 a_5680_n2468# AVDD AVDD AVDD sky130_fd_pr__pfet_01v8_hvt ad=0.145 pd=1.29 as=0.29 ps=2.58 w=1 l=1
X34 AVDD VB1 a_3744_599# AVDD sky130_fd_pr__pfet_01v8_hvt ad=0.29 pd=2.58 as=0.145 ps=1.29 w=1 l=1
X35 VB1 VB1 a_1486_n495# AVDD sky130_fd_pr__pfet_01v8_hvt ad=0.145 pd=1.29 as=0.145 ps=1.29 w=1 l=1
X36 a_1486_6484# VB1 AVDD AVDD sky130_fd_pr__pfet_01v8_hvt ad=0.145 pd=1.29 as=0.29 ps=2.58 w=1 l=1
X37 a_4970_4093# VB1 VB2 AVDD sky130_fd_pr__pfet_01v8_hvt ad=0.145 pd=1.29 as=0.145 ps=1.29 w=1 l=1
X38 a_4454_134# VB1 AVDD AVDD sky130_fd_pr__pfet_01v8_hvt ad=0.145 pd=1.29 as=0.29 ps=2.58 w=1 l=1
X39 a_5680_7101# AVDD AVDD AVDD sky130_fd_pr__pfet_01v8_hvt ad=0.145 pd=1.29 as=0.29 ps=2.58 w=1 l=1
X40 AVDD VB1 a_4970_1968# AVDD sky130_fd_pr__pfet_01v8_hvt ad=0.29 pd=2.58 as=0.145 ps=1.29 w=1 l=1
X41 AVDD AVDD a_5680_1968# AVDD sky130_fd_pr__pfet_01v8_hvt ad=0.29 pd=2.58 as=0.145 ps=1.29 w=1 l=1
X42 a_1486_n495# VB1 AVDD AVDD sky130_fd_pr__pfet_01v8_hvt ad=0.145 pd=1.29 as=0.29 ps=2.58 w=1 l=1
X43 AVDD VB1 a_3744_n2468# AVDD sky130_fd_pr__pfet_01v8_hvt ad=0.29 pd=2.58 as=0.145 ps=1.29 w=1 l=1
X44 AVDD VB1 a_2712_n2468# AVDD sky130_fd_pr__pfet_01v8_hvt ad=0.145 pd=1.29 as=0.145 ps=1.29 w=1 l=1
X45 VB2 VB1 a_4454_n2468# AVDD sky130_fd_pr__pfet_01v8_hvt ad=0.145 pd=1.29 as=0.145 ps=1.29 w=1 l=1
X46 a_3228_5597# VB1 AVDD AVDD sky130_fd_pr__pfet_01v8_hvt ad=0.145 pd=1.29 as=0.145 ps=1.29 w=1 l=1
X47 AVDD AVDD a_777_1220# AVDD sky130_fd_pr__pfet_01v8_hvt ad=0.29 pd=2.58 as=0.145 ps=1.29 w=1 l=1
X48 a_1486_n3085# VB1 AVDD AVDD sky130_fd_pr__pfet_01v8_hvt ad=0.145 pd=1.29 as=0.29 ps=2.58 w=1 l=1
X49 a_3228_n3085# VB1 AVDD AVDD sky130_fd_pr__pfet_01v8_hvt ad=0.145 pd=1.29 as=0.145 ps=1.29 w=1 l=1
X50 a_2002_3476# VB1 VB3 AVDD sky130_fd_pr__pfet_01v8_hvt ad=0.145 pd=1.29 as=0.145 ps=1.29 w=1 l=1
X51 a_777_1220# AVDD AVDD AVDD sky130_fd_pr__pfet_01v8_hvt ad=0.145 pd=1.29 as=0.29 ps=2.58 w=1 l=1
X52 AVDD VB1 a_2002_2589# AVDD sky130_fd_pr__pfet_01v8_hvt ad=0.29 pd=2.58 as=0.145 ps=1.29 w=1 l=1
X53 AVDD VB1 a_2712_2589# AVDD sky130_fd_pr__pfet_01v8_hvt ad=0.145 pd=1.29 as=0.145 ps=1.29 w=1 l=1
X54 AVDD VB1 a_3744_1220# AVDD sky130_fd_pr__pfet_01v8_hvt ad=0.29 pd=2.58 as=0.145 ps=1.29 w=1 l=1
X55 a_5680_n962# AVDD AVDD AVDD sky130_fd_pr__pfet_01v8_hvt ad=0.145 pd=1.29 as=0.29 ps=2.58 w=1 l=1
X56 a_2002_n2468# VB1 VB2 AVDD sky130_fd_pr__pfet_01v8_hvt ad=0.145 pd=1.29 as=0.145 ps=1.29 w=1 l=1
X57 a_3744_n4589# VB1 VB2 AVDD sky130_fd_pr__pfet_01v8_hvt ad=0.145 pd=1.29 as=0.145 ps=1.29 w=1 l=1
X58 a_5680_n3972# AVDD AVDD AVDD sky130_fd_pr__pfet_01v8_hvt ad=0.145 pd=1.29 as=0.29 ps=2.58 w=1 l=1
X59 a_4970_n3972# VB1 VB2 AVDD sky130_fd_pr__pfet_01v8_hvt ad=0.145 pd=1.29 as=0.145 ps=1.29 w=1 l=1
X60 AVDD VB1 a_4970_4093# AVDD sky130_fd_pr__pfet_01v8_hvt ad=0.29 pd=2.58 as=0.145 ps=1.29 w=1 l=1
X61 AVDD AVDD a_5680_4093# AVDD sky130_fd_pr__pfet_01v8_hvt ad=0.29 pd=2.58 as=0.145 ps=1.29 w=1 l=1
X62 a_2712_n2468# VB1 VB3 AVDD sky130_fd_pr__pfet_01v8_hvt ad=0.145 pd=1.29 as=0.29 ps=2.58 w=1 l=1
X63 a_777_n6097# AVDD AVDD AVDD sky130_fd_pr__pfet_01v8_hvt ad=0.145 pd=1.29 as=0.29 ps=2.58 w=1 l=1
X64 a_4454_n4589# VB1 AVDD AVDD sky130_fd_pr__pfet_01v8_hvt ad=0.145 pd=1.29 as=0.29 ps=2.58 w=1 l=1
X65 VB3 VB1 a_1486_3476# AVDD sky130_fd_pr__pfet_01v8_hvt ad=0.145 pd=1.29 as=0.145 ps=1.29 w=1 l=1
X66 a_3744_1220# VB1 VB1 AVDD sky130_fd_pr__pfet_01v8_hvt ad=0.145 pd=1.29 as=0.145 ps=1.29 w=1 l=1
X67 AVDD AVDD a_777_7101# AVDD sky130_fd_pr__pfet_01v8_hvt ad=0.29 pd=2.58 as=0.145 ps=1.29 w=1 l=1
X68 VB1 VB1 a_1486_134# AVDD sky130_fd_pr__pfet_01v8_hvt ad=0.145 pd=1.29 as=0.145 ps=1.29 w=1 l=1
X69 AVDD VB1 a_3744_n3972# AVDD sky130_fd_pr__pfet_01v8_hvt ad=0.29 pd=2.58 as=0.145 ps=1.29 w=1 l=1
X70 a_777_7101# AVDD AVDD AVDD sky130_fd_pr__pfet_01v8_hvt ad=0.145 pd=1.29 as=0.29 ps=2.58 w=1 l=1
X71 a_1486_3476# VB1 AVDD AVDD sky130_fd_pr__pfet_01v8_hvt ad=0.145 pd=1.29 as=0.29 ps=2.58 w=1 l=1
X72 VB1 VB1 a_3228_1220# AVDD sky130_fd_pr__pfet_01v8_hvt ad=0.145 pd=1.29 as=0.145 ps=1.29 w=1 l=1
X73 AVDD AVDD a_777_n3085# AVDD sky130_fd_pr__pfet_01v8_hvt ad=0.29 pd=2.58 as=0.145 ps=1.29 w=1 l=1
X74 VB2 VB1 a_4454_n3972# AVDD sky130_fd_pr__pfet_01v8_hvt ad=0.145 pd=1.29 as=0.145 ps=1.29 w=1 l=1
X75 AVDD VB1 a_2712_n3972# AVDD sky130_fd_pr__pfet_01v8_hvt ad=0.145 pd=1.29 as=0.145 ps=1.29 w=1 l=1
X76 AVDD AVDD a_5680_n3085# AVDD sky130_fd_pr__pfet_01v8_hvt ad=0.29 pd=2.58 as=0.145 ps=1.29 w=1 l=1
X77 AVDD AVDD a_3744_7101# AVDD sky130_fd_pr__pfet_01v8_hvt ad=0.29 pd=2.58 as=0.145 ps=1.29 w=1 l=1
X78 VB3 VB1 a_1486_n4589# AVDD sky130_fd_pr__pfet_01v8_hvt ad=0.145 pd=1.29 as=0.145 ps=1.29 w=1 l=1
X79 AVDD AVDD a_5680_599# AVDD sky130_fd_pr__pfet_01v8_hvt ad=0.29 pd=2.58 as=0.145 ps=1.29 w=1 l=1
X80 a_777_n6844# AVDD AVDD AVDD sky130_fd_pr__pfet_01v8_hvt ad=0.145 pd=1.29 as=0.29 ps=2.58 w=1 l=1
X81 VB3 VB1 a_4454_6484# AVDD sky130_fd_pr__pfet_01v8_hvt ad=0.145 pd=1.29 as=0.145 ps=1.29 w=1 l=1
X82 a_3228_2589# VB1 AVDD AVDD sky130_fd_pr__pfet_01v8_hvt ad=0.145 pd=1.29 as=0.145 ps=1.29 w=1 l=1
X83 AVDD VB1 a_2002_134# AVDD sky130_fd_pr__pfet_01v8_hvt ad=0.29 pd=2.58 as=0.145 ps=1.29 w=1 l=1
X84 a_3744_7101# AVDD AVDD AVDD sky130_fd_pr__pfet_01v8_hvt ad=0.145 pd=1.29 as=0.145 ps=1.29 w=1 l=1
X85 a_5680_5597# AVDD AVDD AVDD sky130_fd_pr__pfet_01v8_hvt ad=0.145 pd=1.29 as=0.29 ps=2.58 w=1 l=1
X86 a_2002_4980# VB1 VB3 AVDD sky130_fd_pr__pfet_01v8_hvt ad=0.145 pd=1.29 as=0.145 ps=1.29 w=1 l=1
X87 VB1 VB1 a_4454_n495# AVDD sky130_fd_pr__pfet_01v8_hvt ad=0.145 pd=1.29 as=0.145 ps=1.29 w=1 l=1
X88 AVDD AVDD a_777_n962# AVDD sky130_fd_pr__pfet_01v8_hvt ad=0.29 pd=2.58 as=0.145 ps=1.29 w=1 l=1
X89 a_4454_6484# VB1 AVDD AVDD sky130_fd_pr__pfet_01v8_hvt ad=0.145 pd=1.29 as=0.29 ps=2.58 w=1 l=1
X90 AVDD VB1 a_2002_1968# AVDD sky130_fd_pr__pfet_01v8_hvt ad=0.29 pd=2.58 as=0.145 ps=1.29 w=1 l=1
X91 AVDD VB1 a_2712_1968# AVDD sky130_fd_pr__pfet_01v8_hvt ad=0.145 pd=1.29 as=0.145 ps=1.29 w=1 l=1
X92 a_777_n5476# AVDD AVDD AVDD sky130_fd_pr__pfet_01v8_hvt ad=0.145 pd=1.29 as=0.29 ps=2.58 w=1 l=1
X93 a_2002_n3972# VB1 VB2 AVDD sky130_fd_pr__pfet_01v8_hvt ad=0.145 pd=1.29 as=0.145 ps=1.29 w=1 l=1
X94 AVDD AVDD a_3228_7101# AVDD sky130_fd_pr__pfet_01v8_hvt ad=0.145 pd=1.29 as=0.145 ps=1.29 w=1 l=1
X95 a_777_n962# AVDD AVDD AVDD sky130_fd_pr__pfet_01v8_hvt ad=0.145 pd=1.29 as=0.29 ps=2.58 w=1 l=1
X96 a_2712_n3972# VB1 VB3 AVDD sky130_fd_pr__pfet_01v8_hvt ad=0.145 pd=1.29 as=0.29 ps=2.58 w=1 l=1
X97 VB3 VB1 a_1486_4980# AVDD sky130_fd_pr__pfet_01v8_hvt ad=0.145 pd=1.29 as=0.145 ps=1.29 w=1 l=1
X98 a_4454_n495# VB1 AVDD AVDD sky130_fd_pr__pfet_01v8_hvt ad=0.145 pd=1.29 as=0.29 ps=2.58 w=1 l=1
X99 AVDD VB1 a_3744_n962# AVDD sky130_fd_pr__pfet_01v8_hvt ad=0.29 pd=2.58 as=0.145 ps=1.29 w=1 l=1
X100 VB2 VB1 a_3228_n1581# AVDD sky130_fd_pr__pfet_01v8_hvt ad=0.145 pd=1.29 as=0.145 ps=1.29 w=1 l=1
X101 AVDD VB1 a_4970_n1581# AVDD sky130_fd_pr__pfet_01v8_hvt ad=0.29 pd=2.58 as=0.145 ps=1.29 w=1 l=1
X102 AVDD AVDD a_777_599# AVDD sky130_fd_pr__pfet_01v8_hvt ad=0.29 pd=2.58 as=0.145 ps=1.29 w=1 l=1
X103 a_1486_4980# VB1 AVDD AVDD sky130_fd_pr__pfet_01v8_hvt ad=0.145 pd=1.29 as=0.29 ps=2.58 w=1 l=1
X104 a_3744_n962# VB1 VB1 AVDD sky130_fd_pr__pfet_01v8_hvt ad=0.145 pd=1.29 as=0.145 ps=1.29 w=1 l=1
X105 AVDD AVDD a_777_5597# AVDD sky130_fd_pr__pfet_01v8_hvt ad=0.29 pd=2.58 as=0.145 ps=1.29 w=1 l=1
X106 AVDD VB1 a_2002_4093# AVDD sky130_fd_pr__pfet_01v8_hvt ad=0.29 pd=2.58 as=0.145 ps=1.29 w=1 l=1
X107 AVDD VB1 a_2712_4093# AVDD sky130_fd_pr__pfet_01v8_hvt ad=0.145 pd=1.29 as=0.145 ps=1.29 w=1 l=1
X108 VB1 VB1 a_3228_n962# AVDD sky130_fd_pr__pfet_01v8_hvt ad=0.145 pd=1.29 as=0.145 ps=1.29 w=1 l=1
X109 a_3228_n1581# VB1 AVDD AVDD sky130_fd_pr__pfet_01v8_hvt ad=0.145 pd=1.29 as=0.145 ps=1.29 w=1 l=1
X110 a_3228_1968# VB1 AVDD AVDD sky130_fd_pr__pfet_01v8_hvt ad=0.145 pd=1.29 as=0.145 ps=1.29 w=1 l=1
X111 a_1486_n1581# VB1 AVDD AVDD sky130_fd_pr__pfet_01v8_hvt ad=0.145 pd=1.29 as=0.29 ps=2.58 w=1 l=1
X112 VB3 VB1 a_4454_3476# AVDD sky130_fd_pr__pfet_01v8_hvt ad=0.145 pd=1.29 as=0.145 ps=1.29 w=1 l=1
X113 a_777_5597# AVDD AVDD AVDD sky130_fd_pr__pfet_01v8_hvt ad=0.145 pd=1.29 as=0.29 ps=2.58 w=1 l=1
X114 AVDD VB1 a_3744_5597# AVDD sky130_fd_pr__pfet_01v8_hvt ad=0.29 pd=2.58 as=0.145 ps=1.29 w=1 l=1
X115 a_5680_2589# AVDD AVDD AVDD sky130_fd_pr__pfet_01v8_hvt ad=0.145 pd=1.29 as=0.29 ps=2.58 w=1 l=1
X116 a_4454_3476# VB1 AVDD AVDD sky130_fd_pr__pfet_01v8_hvt ad=0.145 pd=1.29 as=0.29 ps=2.58 w=1 l=1
X117 a_3744_599# VB1 VB1 AVDD sky130_fd_pr__pfet_01v8_hvt ad=0.145 pd=1.29 as=0.145 ps=1.29 w=1 l=1
X118 a_777_n2468# AVDD AVDD AVDD sky130_fd_pr__pfet_01v8_hvt ad=0.145 pd=1.29 as=0.29 ps=2.58 w=1 l=1
X119 a_3744_5597# VB1 VB3 AVDD sky130_fd_pr__pfet_01v8_hvt ad=0.145 pd=1.29 as=0.145 ps=1.29 w=1 l=1
X120 a_2002_1220# VB1 VB1 AVDD sky130_fd_pr__pfet_01v8_hvt ad=0.145 pd=1.29 as=0.145 ps=1.29 w=1 l=1
X121 a_3228_4093# VB1 AVDD AVDD sky130_fd_pr__pfet_01v8_hvt ad=0.145 pd=1.29 as=0.145 ps=1.29 w=1 l=1
X122 AVDD VB1 a_4970_n6097# AVDD sky130_fd_pr__pfet_01v8_hvt ad=0.29 pd=2.58 as=0.145 ps=1.29 w=1 l=1
X123 VB2 VB1 a_3228_n6097# AVDD sky130_fd_pr__pfet_01v8_hvt ad=0.145 pd=1.29 as=0.145 ps=1.29 w=1 l=1
X124 AVDD VB1 a_2002_n4589# AVDD sky130_fd_pr__pfet_01v8_hvt ad=0.29 pd=2.58 as=0.145 ps=1.29 w=1 l=1
X125 VB3 VB1 a_3228_5597# AVDD sky130_fd_pr__pfet_01v8_hvt ad=0.145 pd=1.29 as=0.145 ps=1.29 w=1 l=1
X126 VB1 VB1 a_1486_1220# AVDD sky130_fd_pr__pfet_01v8_hvt ad=0.145 pd=1.29 as=0.145 ps=1.29 w=1 l=1
X127 a_2712_134# VB1 VB1 AVDD sky130_fd_pr__pfet_01v8_hvt ad=0.145 pd=1.29 as=0.29 ps=2.58 w=1 l=1
X128 AVDD AVDD a_777_n1581# AVDD sky130_fd_pr__pfet_01v8_hvt ad=0.29 pd=2.58 as=0.145 ps=1.29 w=1 l=1
X129 AVDD AVDD a_5680_n1581# AVDD sky130_fd_pr__pfet_01v8_hvt ad=0.29 pd=2.58 as=0.145 ps=1.29 w=1 l=1
X130 a_1486_1220# VB1 AVDD AVDD sky130_fd_pr__pfet_01v8_hvt ad=0.145 pd=1.29 as=0.29 ps=2.58 w=1 l=1
X131 a_3744_n3085# VB1 VB2 AVDD sky130_fd_pr__pfet_01v8_hvt ad=0.145 pd=1.29 as=0.145 ps=1.29 w=1 l=1
X132 a_2002_7101# AVDD AVDD AVDD sky130_fd_pr__pfet_01v8_hvt ad=0.145 pd=1.29 as=0.145 ps=1.29 w=1 l=1
X133 VB3 VB1 a_4454_4980# AVDD sky130_fd_pr__pfet_01v8_hvt ad=0.145 pd=1.29 as=0.145 ps=1.29 w=1 l=1
X134 AVDD AVDD a_777_2589# AVDD sky130_fd_pr__pfet_01v8_hvt ad=0.29 pd=2.58 as=0.145 ps=1.29 w=1 l=1
X135 a_4970_134# VB1 VB1 AVDD sky130_fd_pr__pfet_01v8_hvt ad=0.145 pd=1.29 as=0.145 ps=1.29 w=1 l=1
X136 a_4454_n3085# VB1 AVDD AVDD sky130_fd_pr__pfet_01v8_hvt ad=0.145 pd=1.29 as=0.29 ps=2.58 w=1 l=1
X137 a_5680_1968# AVDD AVDD AVDD sky130_fd_pr__pfet_01v8_hvt ad=0.145 pd=1.29 as=0.29 ps=2.58 w=1 l=1
X138 AVDD AVDD a_4970_n6844# AVDD sky130_fd_pr__pfet_01v8_hvt ad=0.29 pd=2.58 as=0.145 ps=1.29 w=1 l=1
X139 AVDD AVDD a_3228_n6844# AVDD sky130_fd_pr__pfet_01v8_hvt ad=0.145 pd=1.29 as=0.145 ps=1.29 w=1 l=1
X140 a_3228_n6097# VB1 AVDD AVDD sky130_fd_pr__pfet_01v8_hvt ad=0.145 pd=1.29 as=0.145 ps=1.29 w=1 l=1
X141 a_1486_n6097# VB1 AVDD AVDD sky130_fd_pr__pfet_01v8_hvt ad=0.145 pd=1.29 as=0.29 ps=2.58 w=1 l=1
X142 a_2712_6484# VB1 VB2 AVDD sky130_fd_pr__pfet_01v8_hvt ad=0.145 pd=1.29 as=0.29 ps=2.58 w=1 l=1
X143 a_777_2589# AVDD AVDD AVDD sky130_fd_pr__pfet_01v8_hvt ad=0.145 pd=1.29 as=0.29 ps=2.58 w=1 l=1
X144 a_5680_599# AVDD AVDD AVDD sky130_fd_pr__pfet_01v8_hvt ad=0.145 pd=1.29 as=0.29 ps=2.58 w=1 l=1
X145 AVDD AVDD a_1486_7101# AVDD sky130_fd_pr__pfet_01v8_hvt ad=0.145 pd=1.29 as=0.145 ps=1.29 w=1 l=1
X146 a_4454_4980# VB1 AVDD AVDD sky130_fd_pr__pfet_01v8_hvt ad=0.145 pd=1.29 as=0.29 ps=2.58 w=1 l=1
X147 AVDD VB1 a_3744_2589# AVDD sky130_fd_pr__pfet_01v8_hvt ad=0.29 pd=2.58 as=0.145 ps=1.29 w=1 l=1
X148 a_777_n3972# AVDD AVDD AVDD sky130_fd_pr__pfet_01v8_hvt ad=0.145 pd=1.29 as=0.29 ps=2.58 w=1 l=1
X149 a_2712_n495# VB1 VB1 AVDD sky130_fd_pr__pfet_01v8_hvt ad=0.145 pd=1.29 as=0.29 ps=2.58 w=1 l=1
X150 AVDD VB1 a_4970_n5476# AVDD sky130_fd_pr__pfet_01v8_hvt ad=0.29 pd=2.58 as=0.145 ps=1.29 w=1 l=1
X151 a_1486_7101# AVDD AVDD AVDD sky130_fd_pr__pfet_01v8_hvt ad=0.145 pd=1.29 as=0.29 ps=2.58 w=1 l=1
X152 a_1486_134# VB1 AVDD AVDD sky130_fd_pr__pfet_01v8_hvt ad=0.145 pd=1.29 as=0.29 ps=2.58 w=1 l=1
X153 a_3228_134# VB1 AVDD AVDD sky130_fd_pr__pfet_01v8_hvt ad=0.145 pd=1.29 as=0.145 ps=1.29 w=1 l=1
X154 VB3 VB1 a_1486_n3085# AVDD sky130_fd_pr__pfet_01v8_hvt ad=0.145 pd=1.29 as=0.145 ps=1.29 w=1 l=1
X155 VB3 VB1 a_3228_n5476# AVDD sky130_fd_pr__pfet_01v8_hvt ad=0.145 pd=1.29 as=0.145 ps=1.29 w=1 l=1
X156 a_4970_n4589# VB1 VB3 AVDD sky130_fd_pr__pfet_01v8_hvt ad=0.145 pd=1.29 as=0.145 ps=1.29 w=1 l=1
X157 a_3744_2589# VB1 VB3 AVDD sky130_fd_pr__pfet_01v8_hvt ad=0.145 pd=1.29 as=0.145 ps=1.29 w=1 l=1
X158 a_2002_n962# VB1 VB1 AVDD sky130_fd_pr__pfet_01v8_hvt ad=0.145 pd=1.29 as=0.145 ps=1.29 w=1 l=1
X159 a_5680_n4589# AVDD AVDD AVDD sky130_fd_pr__pfet_01v8_hvt ad=0.145 pd=1.29 as=0.29 ps=2.58 w=1 l=1
X160 a_3228_n6844# AVDD AVDD AVDD sky130_fd_pr__pfet_01v8_hvt ad=0.145 pd=1.29 as=0.145 ps=1.29 w=1 l=1
X161 a_1486_n6844# AVDD AVDD AVDD sky130_fd_pr__pfet_01v8_hvt ad=0.145 pd=1.29 as=0.29 ps=2.58 w=1 l=1
X162 a_4970_6484# VB1 VB3 AVDD sky130_fd_pr__pfet_01v8_hvt ad=0.145 pd=1.29 as=0.145 ps=1.29 w=1 l=1
X163 a_5680_4093# AVDD AVDD AVDD sky130_fd_pr__pfet_01v8_hvt ad=0.145 pd=1.29 as=0.29 ps=2.58 w=1 l=1
X164 VB3 VB1 a_3228_2589# AVDD sky130_fd_pr__pfet_01v8_hvt ad=0.145 pd=1.29 as=0.145 ps=1.29 w=1 l=1
X165 VB1 VB1 a_1486_n962# AVDD sky130_fd_pr__pfet_01v8_hvt ad=0.145 pd=1.29 as=0.145 ps=1.29 w=1 l=1
X166 AVDD VB1 a_3744_n4589# AVDD sky130_fd_pr__pfet_01v8_hvt ad=0.29 pd=2.58 as=0.145 ps=1.29 w=1 l=1
X167 AVDD AVDD a_777_1968# AVDD sky130_fd_pr__pfet_01v8_hvt ad=0.29 pd=2.58 as=0.145 ps=1.29 w=1 l=1
X168 a_4970_n495# VB1 VB1 AVDD sky130_fd_pr__pfet_01v8_hvt ad=0.145 pd=1.29 as=0.145 ps=1.29 w=1 l=1
X169 AVDD AVDD a_5680_n6097# AVDD sky130_fd_pr__pfet_01v8_hvt ad=0.29 pd=2.58 as=0.145 ps=1.29 w=1 l=1
X170 AVDD AVDD a_777_n6097# AVDD sky130_fd_pr__pfet_01v8_hvt ad=0.29 pd=2.58 as=0.145 ps=1.29 w=1 l=1
X171 a_3228_n5476# VB1 AVDD AVDD sky130_fd_pr__pfet_01v8_hvt ad=0.145 pd=1.29 as=0.145 ps=1.29 w=1 l=1
X172 VB3 VB1 a_4454_n4589# AVDD sky130_fd_pr__pfet_01v8_hvt ad=0.145 pd=1.29 as=0.145 ps=1.29 w=1 l=1
X173 AVDD VB1 a_3744_134# AVDD sky130_fd_pr__pfet_01v8_hvt ad=0.29 pd=2.58 as=0.145 ps=1.29 w=1 l=1
X174 a_1486_n962# VB1 AVDD AVDD sky130_fd_pr__pfet_01v8_hvt ad=0.145 pd=1.29 as=0.29 ps=2.58 w=1 l=1
X175 a_1486_n5476# VB1 AVDD AVDD sky130_fd_pr__pfet_01v8_hvt ad=0.145 pd=1.29 as=0.29 ps=2.58 w=1 l=1
X176 AVDD VB1 a_2712_n4589# AVDD sky130_fd_pr__pfet_01v8_hvt ad=0.145 pd=1.29 as=0.145 ps=1.29 w=1 l=1
X177 a_777_1968# AVDD AVDD AVDD sky130_fd_pr__pfet_01v8_hvt ad=0.145 pd=1.29 as=0.29 ps=2.58 w=1 l=1
X178 AVDD VB1 a_3744_1968# AVDD sky130_fd_pr__pfet_01v8_hvt ad=0.29 pd=2.58 as=0.145 ps=1.29 w=1 l=1
X179 a_777_599# AVDD AVDD AVDD sky130_fd_pr__pfet_01v8_hvt ad=0.145 pd=1.29 as=0.29 ps=2.58 w=1 l=1
X180 AVDD VB1 a_2712_599# AVDD sky130_fd_pr__pfet_01v8_hvt ad=0.145 pd=1.29 as=0.145 ps=1.29 w=1 l=1
X181 a_2712_3476# VB1 VB2 AVDD sky130_fd_pr__pfet_01v8_hvt ad=0.145 pd=1.29 as=0.29 ps=2.58 w=1 l=1
X182 VB1 VB1 a_4454_1220# AVDD sky130_fd_pr__pfet_01v8_hvt ad=0.145 pd=1.29 as=0.145 ps=1.29 w=1 l=1
X183 VB1 VB1 a_4454_599# AVDD sky130_fd_pr__pfet_01v8_hvt ad=0.145 pd=1.29 as=0.145 ps=1.29 w=1 l=1
X184 a_2002_5597# VB1 VB2 AVDD sky130_fd_pr__pfet_01v8_hvt ad=0.145 pd=1.29 as=0.145 ps=1.29 w=1 l=1
X185 a_3744_1968# VB1 VB2 AVDD sky130_fd_pr__pfet_01v8_hvt ad=0.145 pd=1.29 as=0.145 ps=1.29 w=1 l=1
X186 a_2002_n4589# VB1 VB3 AVDD sky130_fd_pr__pfet_01v8_hvt ad=0.145 pd=1.29 as=0.145 ps=1.29 w=1 l=1
X187 AVDD VB1 a_4970_6484# AVDD sky130_fd_pr__pfet_01v8_hvt ad=0.29 pd=2.58 as=0.145 ps=1.29 w=1 l=1
X188 AVDD AVDD a_5680_6484# AVDD sky130_fd_pr__pfet_01v8_hvt ad=0.29 pd=2.58 as=0.145 ps=1.29 w=1 l=1
X189 AVDD AVDD a_777_4093# AVDD sky130_fd_pr__pfet_01v8_hvt ad=0.29 pd=2.58 as=0.145 ps=1.29 w=1 l=1
X190 AVDD VB1 a_4970_n2468# AVDD sky130_fd_pr__pfet_01v8_hvt ad=0.29 pd=2.58 as=0.145 ps=1.29 w=1 l=1
X191 AVDD AVDD a_5680_n6844# AVDD sky130_fd_pr__pfet_01v8_hvt ad=0.29 pd=2.58 as=0.145 ps=1.29 w=1 l=1
X192 AVDD AVDD a_777_n6844# AVDD sky130_fd_pr__pfet_01v8_hvt ad=0.29 pd=2.58 as=0.145 ps=1.29 w=1 l=1
X193 a_2712_n4589# VB1 VB2 AVDD sky130_fd_pr__pfet_01v8_hvt ad=0.145 pd=1.29 as=0.29 ps=2.58 w=1 l=1
X194 VB2 VB1 a_1486_5597# AVDD sky130_fd_pr__pfet_01v8_hvt ad=0.145 pd=1.29 as=0.145 ps=1.29 w=1 l=1
X195 a_4454_1220# VB1 AVDD AVDD sky130_fd_pr__pfet_01v8_hvt ad=0.145 pd=1.29 as=0.29 ps=2.58 w=1 l=1
X196 AVDD VB1 a_4970_n495# AVDD sky130_fd_pr__pfet_01v8_hvt ad=0.29 pd=2.58 as=0.145 ps=1.29 w=1 l=1
X197 AVDD AVDD a_5680_n495# AVDD sky130_fd_pr__pfet_01v8_hvt ad=0.29 pd=2.58 as=0.145 ps=1.29 w=1 l=1
X198 VB3 VB1 a_3228_n2468# AVDD sky130_fd_pr__pfet_01v8_hvt ad=0.145 pd=1.29 as=0.145 ps=1.29 w=1 l=1
X199 VB2 VB1 a_3228_1968# AVDD sky130_fd_pr__pfet_01v8_hvt ad=0.145 pd=1.29 as=0.145 ps=1.29 w=1 l=1
X200 a_777_4093# AVDD AVDD AVDD sky130_fd_pr__pfet_01v8_hvt ad=0.145 pd=1.29 as=0.29 ps=2.58 w=1 l=1
X201 AVDD AVDD a_777_n5476# AVDD sky130_fd_pr__pfet_01v8_hvt ad=0.29 pd=2.58 as=0.145 ps=1.29 w=1 l=1
X202 AVDD AVDD a_4454_7101# AVDD sky130_fd_pr__pfet_01v8_hvt ad=0.145 pd=1.29 as=0.145 ps=1.29 w=1 l=1
X203 a_1486_5597# VB1 AVDD AVDD sky130_fd_pr__pfet_01v8_hvt ad=0.145 pd=1.29 as=0.29 ps=2.58 w=1 l=1
X204 AVDD VB1 a_3744_4093# AVDD sky130_fd_pr__pfet_01v8_hvt ad=0.29 pd=2.58 as=0.145 ps=1.29 w=1 l=1
X205 a_4970_3476# VB1 VB3 AVDD sky130_fd_pr__pfet_01v8_hvt ad=0.145 pd=1.29 as=0.145 ps=1.29 w=1 l=1
X206 AVDD AVDD a_5680_n5476# AVDD sky130_fd_pr__pfet_01v8_hvt ad=0.29 pd=2.58 as=0.145 ps=1.29 w=1 l=1
X207 a_3744_n1581# VB1 VB2 AVDD sky130_fd_pr__pfet_01v8_hvt ad=0.145 pd=1.29 as=0.145 ps=1.29 w=1 l=1
X208 a_3744_4093# VB1 VB3 AVDD sky130_fd_pr__pfet_01v8_hvt ad=0.145 pd=1.29 as=0.145 ps=1.29 w=1 l=1
X209 VB1 VB1 a_3228_599# AVDD sky130_fd_pr__pfet_01v8_hvt ad=0.145 pd=1.29 as=0.145 ps=1.29 w=1 l=1
X210 a_4454_n1581# VB1 AVDD AVDD sky130_fd_pr__pfet_01v8_hvt ad=0.145 pd=1.29 as=0.29 ps=2.58 w=1 l=1
X211 a_3228_n2468# VB1 AVDD AVDD sky130_fd_pr__pfet_01v8_hvt ad=0.145 pd=1.29 as=0.145 ps=1.29 w=1 l=1
X212 a_4454_7101# AVDD AVDD AVDD sky130_fd_pr__pfet_01v8_hvt ad=0.145 pd=1.29 as=0.29 ps=2.58 w=1 l=1
X213 AVDD VB1 a_4970_599# AVDD sky130_fd_pr__pfet_01v8_hvt ad=0.29 pd=2.58 as=0.145 ps=1.29 w=1 l=1
X214 a_1486_n2468# VB1 AVDD AVDD sky130_fd_pr__pfet_01v8_hvt ad=0.145 pd=1.29 as=0.29 ps=2.58 w=1 l=1
X215 AVDD VB1 a_2002_n3085# AVDD sky130_fd_pr__pfet_01v8_hvt ad=0.29 pd=2.58 as=0.145 ps=1.29 w=1 l=1
X216 a_2712_4980# VB1 VB2 AVDD sky130_fd_pr__pfet_01v8_hvt ad=0.145 pd=1.29 as=0.29 ps=2.58 w=1 l=1
X217 VB3 VB1 a_3228_4093# AVDD sky130_fd_pr__pfet_01v8_hvt ad=0.145 pd=1.29 as=0.145 ps=1.29 w=1 l=1
X218 a_2002_599# VB1 VB1 AVDD sky130_fd_pr__pfet_01v8_hvt ad=0.145 pd=1.29 as=0.145 ps=1.29 w=1 l=1
X219 a_2002_2589# VB1 VB2 AVDD sky130_fd_pr__pfet_01v8_hvt ad=0.145 pd=1.29 as=0.145 ps=1.29 w=1 l=1
X220 AVDD AVDD a_5680_134# AVDD sky130_fd_pr__pfet_01v8_hvt ad=0.29 pd=2.58 as=0.145 ps=1.29 w=1 l=1
X221 VB1 VB1 a_4454_n962# AVDD sky130_fd_pr__pfet_01v8_hvt ad=0.145 pd=1.29 as=0.145 ps=1.29 w=1 l=1
X222 AVDD VB1 a_4970_n3972# AVDD sky130_fd_pr__pfet_01v8_hvt ad=0.29 pd=2.58 as=0.145 ps=1.29 w=1 l=1
X223 AVDD VB1 a_4970_3476# AVDD sky130_fd_pr__pfet_01v8_hvt ad=0.29 pd=2.58 as=0.145 ps=1.29 w=1 l=1
X224 AVDD AVDD a_5680_3476# AVDD sky130_fd_pr__pfet_01v8_hvt ad=0.29 pd=2.58 as=0.145 ps=1.29 w=1 l=1
X225 VB3 VB1 a_1486_n1581# AVDD sky130_fd_pr__pfet_01v8_hvt ad=0.145 pd=1.29 as=0.145 ps=1.29 w=1 l=1
X226 VB3 VB1 a_3228_n3972# AVDD sky130_fd_pr__pfet_01v8_hvt ad=0.145 pd=1.29 as=0.145 ps=1.29 w=1 l=1
X227 VB2 VB1 a_1486_2589# AVDD sky130_fd_pr__pfet_01v8_hvt ad=0.145 pd=1.29 as=0.145 ps=1.29 w=1 l=1
X228 a_4454_n962# VB1 AVDD AVDD sky130_fd_pr__pfet_01v8_hvt ad=0.145 pd=1.29 as=0.29 ps=2.58 w=1 l=1
X229 a_4970_4980# VB1 VB3 AVDD sky130_fd_pr__pfet_01v8_hvt ad=0.145 pd=1.29 as=0.145 ps=1.29 w=1 l=1
X230 AVDD VB1 a_2002_6484# AVDD sky130_fd_pr__pfet_01v8_hvt ad=0.29 pd=2.58 as=0.145 ps=1.29 w=1 l=1
X231 AVDD VB1 a_2712_6484# AVDD sky130_fd_pr__pfet_01v8_hvt ad=0.145 pd=1.29 as=0.145 ps=1.29 w=1 l=1
X232 AVDD AVDD a_777_n2468# AVDD sky130_fd_pr__pfet_01v8_hvt ad=0.29 pd=2.58 as=0.145 ps=1.29 w=1 l=1
X233 a_1486_2589# VB1 AVDD AVDD sky130_fd_pr__pfet_01v8_hvt ad=0.145 pd=1.29 as=0.29 ps=2.58 w=1 l=1
X234 AVDD AVDD a_777_134# AVDD sky130_fd_pr__pfet_01v8_hvt ad=0.29 pd=2.58 as=0.145 ps=1.29 w=1 l=1
X235 AVDD AVDD a_5680_n2468# AVDD sky130_fd_pr__pfet_01v8_hvt ad=0.29 pd=2.58 as=0.145 ps=1.29 w=1 l=1
X236 a_3228_n3972# VB1 AVDD AVDD sky130_fd_pr__pfet_01v8_hvt ad=0.145 pd=1.29 as=0.145 ps=1.29 w=1 l=1
X237 a_1486_n3972# VB1 AVDD AVDD sky130_fd_pr__pfet_01v8_hvt ad=0.145 pd=1.29 as=0.29 ps=2.58 w=1 l=1
X238 AVDD VB1 a_2002_n495# AVDD sky130_fd_pr__pfet_01v8_hvt ad=0.29 pd=2.58 as=0.145 ps=1.29 w=1 l=1
X239 AVDD VB1 a_2712_n495# AVDD sky130_fd_pr__pfet_01v8_hvt ad=0.145 pd=1.29 as=0.145 ps=1.29 w=1 l=1
X240 a_3744_n6097# VB1 VB2 AVDD sky130_fd_pr__pfet_01v8_hvt ad=0.145 pd=1.29 as=0.145 ps=1.29 w=1 l=1
X241 a_4970_n3085# VB1 VB3 AVDD sky130_fd_pr__pfet_01v8_hvt ad=0.145 pd=1.29 as=0.145 ps=1.29 w=1 l=1
X242 a_4454_n6097# VB1 AVDD AVDD sky130_fd_pr__pfet_01v8_hvt ad=0.145 pd=1.29 as=0.29 ps=2.58 w=1 l=1
X243 a_5680_n3085# AVDD AVDD AVDD sky130_fd_pr__pfet_01v8_hvt ad=0.145 pd=1.29 as=0.29 ps=2.58 w=1 l=1
X244 VB2 VB1 a_4454_5597# AVDD sky130_fd_pr__pfet_01v8_hvt ad=0.145 pd=1.29 as=0.145 ps=1.29 w=1 l=1
X245 a_2002_1968# VB1 VB3 AVDD sky130_fd_pr__pfet_01v8_hvt ad=0.145 pd=1.29 as=0.145 ps=1.29 w=1 l=1
X246 a_4454_5597# VB1 AVDD AVDD sky130_fd_pr__pfet_01v8_hvt ad=0.145 pd=1.29 as=0.29 ps=2.58 w=1 l=1
X247 AVDD VB1 a_4970_4980# AVDD sky130_fd_pr__pfet_01v8_hvt ad=0.29 pd=2.58 as=0.145 ps=1.29 w=1 l=1
X248 AVDD AVDD a_5680_4980# AVDD sky130_fd_pr__pfet_01v8_hvt ad=0.29 pd=2.58 as=0.145 ps=1.29 w=1 l=1
X249 a_2712_1220# VB1 VB1 AVDD sky130_fd_pr__pfet_01v8_hvt ad=0.145 pd=1.29 as=0.29 ps=2.58 w=1 l=1
X250 AVDD VB1 a_3744_n3085# AVDD sky130_fd_pr__pfet_01v8_hvt ad=0.29 pd=2.58 as=0.145 ps=1.29 w=1 l=1
X251 a_777_n4589# AVDD AVDD AVDD sky130_fd_pr__pfet_01v8_hvt ad=0.145 pd=1.29 as=0.29 ps=2.58 w=1 l=1
X252 VB3 VB1 a_4454_n3085# AVDD sky130_fd_pr__pfet_01v8_hvt ad=0.145 pd=1.29 as=0.145 ps=1.29 w=1 l=1
X253 a_3228_6484# VB1 AVDD AVDD sky130_fd_pr__pfet_01v8_hvt ad=0.145 pd=1.29 as=0.145 ps=1.29 w=1 l=1
X254 VB3 VB1 a_1486_1968# AVDD sky130_fd_pr__pfet_01v8_hvt ad=0.145 pd=1.29 as=0.145 ps=1.29 w=1 l=1
X255 AVDD VB1 a_2712_n3085# AVDD sky130_fd_pr__pfet_01v8_hvt ad=0.145 pd=1.29 as=0.145 ps=1.29 w=1 l=1
X256 a_3744_n6844# AVDD AVDD AVDD sky130_fd_pr__pfet_01v8_hvt ad=0.145 pd=1.29 as=0.145 ps=1.29 w=1 l=1
X257 VB3 VB1 a_1486_n6097# AVDD sky130_fd_pr__pfet_01v8_hvt ad=0.145 pd=1.29 as=0.145 ps=1.29 w=1 l=1
X258 a_4454_n6844# AVDD AVDD AVDD sky130_fd_pr__pfet_01v8_hvt ad=0.145 pd=1.29 as=0.29 ps=2.58 w=1 l=1
X259 a_1486_1968# VB1 AVDD AVDD sky130_fd_pr__pfet_01v8_hvt ad=0.145 pd=1.29 as=0.29 ps=2.58 w=1 l=1
X260 a_3744_134# VB1 VB1 AVDD sky130_fd_pr__pfet_01v8_hvt ad=0.145 pd=1.29 as=0.145 ps=1.29 w=1 l=1
X261 a_3228_n495# VB1 AVDD AVDD sky130_fd_pr__pfet_01v8_hvt ad=0.145 pd=1.29 as=0.145 ps=1.29 w=1 l=1
X262 AVDD AVDD a_777_n3972# AVDD sky130_fd_pr__pfet_01v8_hvt ad=0.29 pd=2.58 as=0.145 ps=1.29 w=1 l=1
X263 AVDD AVDD a_5680_n3972# AVDD sky130_fd_pr__pfet_01v8_hvt ad=0.29 pd=2.58 as=0.145 ps=1.29 w=1 l=1
X264 a_2002_4093# VB1 VB2 AVDD sky130_fd_pr__pfet_01v8_hvt ad=0.145 pd=1.29 as=0.145 ps=1.29 w=1 l=1
X265 AVDD VB1 a_2002_3476# AVDD sky130_fd_pr__pfet_01v8_hvt ad=0.29 pd=2.58 as=0.145 ps=1.29 w=1 l=1
X266 AVDD VB1 a_2712_3476# AVDD sky130_fd_pr__pfet_01v8_hvt ad=0.145 pd=1.29 as=0.145 ps=1.29 w=1 l=1
X267 a_2002_n3085# VB1 VB3 AVDD sky130_fd_pr__pfet_01v8_hvt ad=0.145 pd=1.29 as=0.145 ps=1.29 w=1 l=1
X268 a_3744_n5476# VB1 VB3 AVDD sky130_fd_pr__pfet_01v8_hvt ad=0.145 pd=1.29 as=0.145 ps=1.29 w=1 l=1
X269 a_2712_7101# AVDD AVDD AVDD sky130_fd_pr__pfet_01v8_hvt ad=0.145 pd=1.29 as=0.29 ps=2.58 w=1 l=1
X270 a_4970_1220# VB1 VB1 AVDD sky130_fd_pr__pfet_01v8_hvt ad=0.145 pd=1.29 as=0.145 ps=1.29 w=1 l=1
X271 a_4454_599# VB1 AVDD AVDD sky130_fd_pr__pfet_01v8_hvt ad=0.145 pd=1.29 as=0.29 ps=2.58 w=1 l=1
X272 a_2712_n3085# VB1 VB2 AVDD sky130_fd_pr__pfet_01v8_hvt ad=0.145 pd=1.29 as=0.29 ps=2.58 w=1 l=1
X273 a_4454_n5476# VB1 AVDD AVDD sky130_fd_pr__pfet_01v8_hvt ad=0.145 pd=1.29 as=0.29 ps=2.58 w=1 l=1
X274 VB2 VB1 a_1486_4093# AVDD sky130_fd_pr__pfet_01v8_hvt ad=0.145 pd=1.29 as=0.145 ps=1.29 w=1 l=1
X275 AVDD VB1 a_2002_n1581# AVDD sky130_fd_pr__pfet_01v8_hvt ad=0.29 pd=2.58 as=0.145 ps=1.29 w=1 l=1
X276 AVDD AVDD a_1486_n6844# AVDD sky130_fd_pr__pfet_01v8_hvt ad=0.145 pd=1.29 as=0.145 ps=1.29 w=1 l=1
X277 VB2 VB1 a_4454_2589# AVDD sky130_fd_pr__pfet_01v8_hvt ad=0.145 pd=1.29 as=0.145 ps=1.29 w=1 l=1
X278 a_1486_4093# VB1 AVDD AVDD sky130_fd_pr__pfet_01v8_hvt ad=0.145 pd=1.29 as=0.29 ps=2.58 w=1 l=1
X279 a_4454_2589# VB1 AVDD AVDD sky130_fd_pr__pfet_01v8_hvt ad=0.145 pd=1.29 as=0.29 ps=2.58 w=1 l=1
X280 a_2712_n962# VB1 VB1 AVDD sky130_fd_pr__pfet_01v8_hvt ad=0.145 pd=1.29 as=0.29 ps=2.58 w=1 l=1
X281 VB2 VB1 a_1486_n5476# AVDD sky130_fd_pr__pfet_01v8_hvt ad=0.145 pd=1.29 as=0.145 ps=1.29 w=1 l=1
X282 a_4970_7101# AVDD AVDD AVDD sky130_fd_pr__pfet_01v8_hvt ad=0.145 pd=1.29 as=0.145 ps=1.29 w=1 l=1
X283 a_5680_6484# AVDD AVDD AVDD sky130_fd_pr__pfet_01v8_hvt ad=0.145 pd=1.29 as=0.29 ps=2.58 w=1 l=1
X284 a_3228_3476# VB1 AVDD AVDD sky130_fd_pr__pfet_01v8_hvt ad=0.145 pd=1.29 as=0.145 ps=1.29 w=1 l=1
X285 AVDD VB1 a_4970_1220# AVDD sky130_fd_pr__pfet_01v8_hvt ad=0.29 pd=2.58 as=0.145 ps=1.29 w=1 l=1
X286 AVDD AVDD a_5680_1220# AVDD sky130_fd_pr__pfet_01v8_hvt ad=0.29 pd=2.58 as=0.145 ps=1.29 w=1 l=1
X287 a_5680_134# AVDD AVDD AVDD sky130_fd_pr__pfet_01v8_hvt ad=0.145 pd=1.29 as=0.29 ps=2.58 w=1 l=1
X288 AVDD VB1 a_2002_4980# AVDD sky130_fd_pr__pfet_01v8_hvt ad=0.29 pd=2.58 as=0.145 ps=1.29 w=1 l=1
X289 AVDD VB1 a_2712_4980# AVDD sky130_fd_pr__pfet_01v8_hvt ad=0.145 pd=1.29 as=0.145 ps=1.29 w=1 l=1
X290 a_5680_n495# AVDD AVDD AVDD sky130_fd_pr__pfet_01v8_hvt ad=0.145 pd=1.29 as=0.29 ps=2.58 w=1 l=1
X291 VB1 VB1 a_1486_599# AVDD sky130_fd_pr__pfet_01v8_hvt ad=0.145 pd=1.29 as=0.145 ps=1.29 w=1 l=1
X292 a_4970_n1581# VB1 VB3 AVDD sky130_fd_pr__pfet_01v8_hvt ad=0.145 pd=1.29 as=0.145 ps=1.29 w=1 l=1
X293 a_3744_n2468# VB1 VB3 AVDD sky130_fd_pr__pfet_01v8_hvt ad=0.145 pd=1.29 as=0.145 ps=1.29 w=1 l=1
X294 VB3 VB1 a_4454_1968# AVDD sky130_fd_pr__pfet_01v8_hvt ad=0.145 pd=1.29 as=0.145 ps=1.29 w=1 l=1