* NGSPICE file created from pbias_vb123.ext - technology: sky130A

.subckt pbias_vb123 VB3 VB2 AVDD VB1
X0 VB3 VB1 a_3228_3476# AVDD sky130_fd_pr__pfet_01v8_hvt ad=0.145 pd=1.29 as=0.145 ps=1.29 w=1 l=1
X1 a_2712_1968# VB1 VB3 AVDD sky130_fd_pr__pfet_01v8_hvt ad=0.145 pd=1.29 as=0.29 ps=2.58 w=1 l=1
X2 AVDD AVDD a_777_4980# AVDD sky130_fd_pr__pfet_01v8_hvt ad=0.29 pd=2.58 as=0.145 ps=1.29 w=1 l=1
X3 a_777_4980# AVDD AVDD AVDD sky130_fd_pr__pfet_01v8_hvt ad=0.145 pd=1.29 as=0.29 ps=2.58 w=1 l=1
X4 AVDD VB1 a_4970_2589# AVDD sky130_fd_pr__pfet_01v8_hvt ad=0.29 pd=2.58 as=0.145 ps=1.29 w=1 l=1
X5 AVDD AVDD a_5680_2589# AVDD sky130_fd_pr__pfet_01v8_hvt ad=0.29 pd=2.58 as=0.145 ps=1.29 w=1 l=1
X6 a_1486_599# VB1 AVDD AVDD sky130_fd_pr__pfet_01v8_hvt ad=0.145 pd=1.29 as=0.29 ps=2.58 w=1 l=1
X7 AVDD VB1 a_3744_4980# AVDD sky130_fd_pr__pfet_01v8_hvt ad=0.29 pd=2.58 as=0.145 ps=1.29 w=1 l=1
X8 a_3228_599# VB1 AVDD AVDD sky130_fd_pr__pfet_01v8_hvt ad=0.145 pd=1.29 as=0.145 ps=1.29 w=1 l=1
X9 AVDD AVDD a_2002_5589# AVDD sky130_fd_pr__pfet_01v8_hvt ad=0.29 pd=2.58 as=0.145 ps=1.29 w=1 l=1
X10 AVDD AVDD a_2712_5589# AVDD sky130_fd_pr__pfet_01v8_hvt ad=0.145 pd=1.29 as=0.145 ps=1.29 w=1 l=1
X11 a_2712_4093# VB1 VB2 AVDD sky130_fd_pr__pfet_01v8_hvt ad=0.145 pd=1.29 as=0.29 ps=2.58 w=1 l=1
X12 a_4970_1968# VB1 VB2 AVDD sky130_fd_pr__pfet_01v8_hvt ad=0.145 pd=1.29 as=0.145 ps=1.29 w=1 l=1
X13 a_5680_1220# AVDD AVDD AVDD sky130_fd_pr__pfet_01v8_hvt ad=0.145 pd=1.29 as=0.29 ps=2.58 w=1 l=1
X14 a_3228_n962# VB1 AVDD AVDD sky130_fd_pr__pfet_01v8_hvt ad=0.145 pd=1.29 as=0.145 ps=1.29 w=1 l=1
X15 a_777_n1581# AVDD AVDD AVDD sky130_fd_pr__pfet_01v8_hvt ad=0.145 pd=1.29 as=0.29 ps=2.58 w=1 l=1
X16 a_3744_4980# VB1 VB3 AVDD sky130_fd_pr__pfet_01v8_hvt ad=0.145 pd=1.29 as=0.145 ps=1.29 w=1 l=1
X17 a_2002_n495# VB1 VB1 AVDD sky130_fd_pr__pfet_01v8_hvt ad=0.145 pd=1.29 as=0.145 ps=1.29 w=1 l=1
X18 AVDD AVDD a_5680_n5336# AVDD sky130_fd_pr__pfet_01v8_hvt ad=0.29 pd=2.58 as=0.145 ps=1.29 w=1 l=1
X19 AVDD AVDD a_777_n5336# AVDD sky130_fd_pr__pfet_01v8_hvt ad=0.29 pd=2.58 as=0.145 ps=1.29 w=1 l=1
X20 AVDD VB1 a_2002_n3972# AVDD sky130_fd_pr__pfet_01v8_hvt ad=0.29 pd=2.58 as=0.145 ps=1.29 w=1 l=1
X21 AVDD VB1 a_4970_n3085# AVDD sky130_fd_pr__pfet_01v8_hvt ad=0.29 pd=2.58 as=0.145 ps=1.29 w=1 l=1
X22 VB2 VB1 a_3228_n3085# AVDD sky130_fd_pr__pfet_01v8_hvt ad=0.145 pd=1.29 as=0.145 ps=1.29 w=1 l=1
X23 a_4970_n2468# VB1 VB2 AVDD sky130_fd_pr__pfet_01v8_hvt ad=0.145 pd=1.29 as=0.145 ps=1.29 w=1 l=1
X24 VB3 VB1 a_3228_4980# AVDD sky130_fd_pr__pfet_01v8_hvt ad=0.145 pd=1.29 as=0.145 ps=1.29 w=1 l=1
X25 a_5680_n2468# AVDD AVDD AVDD sky130_fd_pr__pfet_01v8_hvt ad=0.145 pd=1.29 as=0.29 ps=2.58 w=1 l=1
X26 AVDD VB1 a_3744_599# AVDD sky130_fd_pr__pfet_01v8_hvt ad=0.29 pd=2.58 as=0.145 ps=1.29 w=1 l=1
X27 VB1 VB1 a_1486_n495# AVDD sky130_fd_pr__pfet_01v8_hvt ad=0.145 pd=1.29 as=0.145 ps=1.29 w=1 l=1
X28 a_4970_4093# VB1 VB3 AVDD sky130_fd_pr__pfet_01v8_hvt ad=0.145 pd=1.29 as=0.145 ps=1.29 w=1 l=1
X29 a_4454_134# VB1 AVDD AVDD sky130_fd_pr__pfet_01v8_hvt ad=0.145 pd=1.29 as=0.29 ps=2.58 w=1 l=1
X30 a_3228_5589# AVDD AVDD AVDD sky130_fd_pr__pfet_01v8_hvt ad=0.145 pd=1.29 as=0.145 ps=1.29 w=1 l=1
X31 AVDD VB1 a_4970_1968# AVDD sky130_fd_pr__pfet_01v8_hvt ad=0.29 pd=2.58 as=0.145 ps=1.29 w=1 l=1
X32 AVDD AVDD a_5680_1968# AVDD sky130_fd_pr__pfet_01v8_hvt ad=0.29 pd=2.58 as=0.145 ps=1.29 w=1 l=1
X33 a_1486_n495# VB1 AVDD AVDD sky130_fd_pr__pfet_01v8_hvt ad=0.145 pd=1.29 as=0.29 ps=2.58 w=1 l=1
X34 AVDD VB1 a_3744_n2468# AVDD sky130_fd_pr__pfet_01v8_hvt ad=0.29 pd=2.58 as=0.145 ps=1.29 w=1 l=1
X35 VB2 VB1 a_4454_n2468# AVDD sky130_fd_pr__pfet_01v8_hvt ad=0.145 pd=1.29 as=0.145 ps=1.29 w=1 l=1
X36 AVDD VB1 a_2712_n2468# AVDD sky130_fd_pr__pfet_01v8_hvt ad=0.145 pd=1.29 as=0.145 ps=1.29 w=1 l=1
X37 AVDD AVDD a_777_1220# AVDD sky130_fd_pr__pfet_01v8_hvt ad=0.29 pd=2.58 as=0.145 ps=1.29 w=1 l=1
X38 a_3228_n3085# VB1 AVDD AVDD sky130_fd_pr__pfet_01v8_hvt ad=0.145 pd=1.29 as=0.145 ps=1.29 w=1 l=1
X39 a_1486_n3085# VB1 AVDD AVDD sky130_fd_pr__pfet_01v8_hvt ad=0.145 pd=1.29 as=0.29 ps=2.58 w=1 l=1
X40 a_2002_3476# VB1 VB2 AVDD sky130_fd_pr__pfet_01v8_hvt ad=0.145 pd=1.29 as=0.145 ps=1.29 w=1 l=1
X41 a_777_1220# AVDD AVDD AVDD sky130_fd_pr__pfet_01v8_hvt ad=0.145 pd=1.29 as=0.29 ps=2.58 w=1 l=1
X42 AVDD VB1 a_2002_2589# AVDD sky130_fd_pr__pfet_01v8_hvt ad=0.29 pd=2.58 as=0.145 ps=1.29 w=1 l=1
X43 AVDD VB1 a_2712_2589# AVDD sky130_fd_pr__pfet_01v8_hvt ad=0.145 pd=1.29 as=0.145 ps=1.29 w=1 l=1
X44 AVDD VB1 a_3744_1220# AVDD sky130_fd_pr__pfet_01v8_hvt ad=0.29 pd=2.58 as=0.145 ps=1.29 w=1 l=1
X45 a_5680_n962# AVDD AVDD AVDD sky130_fd_pr__pfet_01v8_hvt ad=0.145 pd=1.29 as=0.29 ps=2.58 w=1 l=1
X46 a_3744_n4589# VB1 VB2 AVDD sky130_fd_pr__pfet_01v8_hvt ad=0.145 pd=1.29 as=0.145 ps=1.29 w=1 l=1
X47 a_5680_n3972# AVDD AVDD AVDD sky130_fd_pr__pfet_01v8_hvt ad=0.145 pd=1.29 as=0.29 ps=2.58 w=1 l=1
X48 a_4970_n3972# VB1 VB2 AVDD sky130_fd_pr__pfet_01v8_hvt ad=0.145 pd=1.29 as=0.145 ps=1.29 w=1 l=1
X49 a_2002_n2468# VB1 VB2 AVDD sky130_fd_pr__pfet_01v8_hvt ad=0.145 pd=1.29 as=0.145 ps=1.29 w=1 l=1
X50 AVDD VB1 a_4970_4093# AVDD sky130_fd_pr__pfet_01v8_hvt ad=0.29 pd=2.58 as=0.145 ps=1.29 w=1 l=1
X51 AVDD AVDD a_5680_4093# AVDD sky130_fd_pr__pfet_01v8_hvt ad=0.29 pd=2.58 as=0.145 ps=1.29 w=1 l=1
X52 a_4454_n4589# VB1 AVDD AVDD sky130_fd_pr__pfet_01v8_hvt ad=0.145 pd=1.29 as=0.29 ps=2.58 w=1 l=1
X53 a_2712_n2468# VB1 VB3 AVDD sky130_fd_pr__pfet_01v8_hvt ad=0.145 pd=1.29 as=0.29 ps=2.58 w=1 l=1
X54 VB2 VB1 a_1486_3476# AVDD sky130_fd_pr__pfet_01v8_hvt ad=0.145 pd=1.29 as=0.145 ps=1.29 w=1 l=1
X55 a_3744_1220# VB1 VB1 AVDD sky130_fd_pr__pfet_01v8_hvt ad=0.145 pd=1.29 as=0.145 ps=1.29 w=1 l=1
X56 VB1 VB1 a_1486_134# AVDD sky130_fd_pr__pfet_01v8_hvt ad=0.145 pd=1.29 as=0.145 ps=1.29 w=1 l=1
X57 AVDD VB1 a_3744_n3972# AVDD sky130_fd_pr__pfet_01v8_hvt ad=0.29 pd=2.58 as=0.145 ps=1.29 w=1 l=1
X58 a_1486_3476# VB1 AVDD AVDD sky130_fd_pr__pfet_01v8_hvt ad=0.145 pd=1.29 as=0.29 ps=2.58 w=1 l=1
X59 VB1 VB1 a_3228_1220# AVDD sky130_fd_pr__pfet_01v8_hvt ad=0.145 pd=1.29 as=0.145 ps=1.29 w=1 l=1
X60 VB2 VB1 a_4454_n3972# AVDD sky130_fd_pr__pfet_01v8_hvt ad=0.145 pd=1.29 as=0.145 ps=1.29 w=1 l=1
X61 AVDD VB1 a_2712_n3972# AVDD sky130_fd_pr__pfet_01v8_hvt ad=0.145 pd=1.29 as=0.145 ps=1.29 w=1 l=1
X62 AVDD AVDD a_5680_n3085# AVDD sky130_fd_pr__pfet_01v8_hvt ad=0.29 pd=2.58 as=0.145 ps=1.29 w=1 l=1
X63 AVDD AVDD a_777_n3085# AVDD sky130_fd_pr__pfet_01v8_hvt ad=0.29 pd=2.58 as=0.145 ps=1.29 w=1 l=1
X64 VB3 VB1 a_1486_n4589# AVDD sky130_fd_pr__pfet_01v8_hvt ad=0.145 pd=1.29 as=0.145 ps=1.29 w=1 l=1
X65 a_5680_5589# AVDD AVDD AVDD sky130_fd_pr__pfet_01v8_hvt ad=0.145 pd=1.29 as=0.29 ps=2.58 w=1 l=1
X66 AVDD AVDD a_5680_599# AVDD sky130_fd_pr__pfet_01v8_hvt ad=0.29 pd=2.58 as=0.145 ps=1.29 w=1 l=1
X67 a_3228_2589# VB1 AVDD AVDD sky130_fd_pr__pfet_01v8_hvt ad=0.145 pd=1.29 as=0.145 ps=1.29 w=1 l=1
X68 AVDD VB1 a_2002_134# AVDD sky130_fd_pr__pfet_01v8_hvt ad=0.29 pd=2.58 as=0.145 ps=1.29 w=1 l=1
X69 a_2002_4980# VB1 VB2 AVDD sky130_fd_pr__pfet_01v8_hvt ad=0.145 pd=1.29 as=0.145 ps=1.29 w=1 l=1
X70 VB1 VB1 a_4454_n495# AVDD sky130_fd_pr__pfet_01v8_hvt ad=0.145 pd=1.29 as=0.145 ps=1.29 w=1 l=1
X71 AVDD AVDD a_777_n962# AVDD sky130_fd_pr__pfet_01v8_hvt ad=0.29 pd=2.58 as=0.145 ps=1.29 w=1 l=1
X72 AVDD VB1 a_2002_1968# AVDD sky130_fd_pr__pfet_01v8_hvt ad=0.29 pd=2.58 as=0.145 ps=1.29 w=1 l=1
X73 AVDD VB1 a_2712_1968# AVDD sky130_fd_pr__pfet_01v8_hvt ad=0.145 pd=1.29 as=0.145 ps=1.29 w=1 l=1
X74 a_2002_n3972# VB1 VB2 AVDD sky130_fd_pr__pfet_01v8_hvt ad=0.145 pd=1.29 as=0.145 ps=1.29 w=1 l=1
X75 a_777_n962# AVDD AVDD AVDD sky130_fd_pr__pfet_01v8_hvt ad=0.145 pd=1.29 as=0.29 ps=2.58 w=1 l=1
X76 a_2712_n3972# VB1 VB3 AVDD sky130_fd_pr__pfet_01v8_hvt ad=0.145 pd=1.29 as=0.29 ps=2.58 w=1 l=1
X77 VB2 VB1 a_1486_4980# AVDD sky130_fd_pr__pfet_01v8_hvt ad=0.145 pd=1.29 as=0.145 ps=1.29 w=1 l=1
X78 a_4454_n495# VB1 AVDD AVDD sky130_fd_pr__pfet_01v8_hvt ad=0.145 pd=1.29 as=0.29 ps=2.58 w=1 l=1
X79 AVDD VB1 a_3744_n962# AVDD sky130_fd_pr__pfet_01v8_hvt ad=0.29 pd=2.58 as=0.145 ps=1.29 w=1 l=1
X80 VB2 VB1 a_3228_n1581# AVDD sky130_fd_pr__pfet_01v8_hvt ad=0.145 pd=1.29 as=0.145 ps=1.29 w=1 l=1
X81 AVDD VB1 a_4970_n1581# AVDD sky130_fd_pr__pfet_01v8_hvt ad=0.29 pd=2.58 as=0.145 ps=1.29 w=1 l=1
X82 AVDD AVDD a_777_599# AVDD sky130_fd_pr__pfet_01v8_hvt ad=0.29 pd=2.58 as=0.145 ps=1.29 w=1 l=1
X83 a_3744_n5336# AVDD AVDD AVDD sky130_fd_pr__pfet_01v8_hvt ad=0.145 pd=1.29 as=0.145 ps=1.29 w=1 l=1
X84 a_1486_4980# VB1 AVDD AVDD sky130_fd_pr__pfet_01v8_hvt ad=0.145 pd=1.29 as=0.29 ps=2.58 w=1 l=1
X85 a_3744_n962# VB1 VB1 AVDD sky130_fd_pr__pfet_01v8_hvt ad=0.145 pd=1.29 as=0.145 ps=1.29 w=1 l=1
X86 a_4454_n5336# AVDD AVDD AVDD sky130_fd_pr__pfet_01v8_hvt ad=0.145 pd=1.29 as=0.29 ps=2.58 w=1 l=1
X87 AVDD AVDD a_777_5589# AVDD sky130_fd_pr__pfet_01v8_hvt ad=0.29 pd=2.58 as=0.145 ps=1.29 w=1 l=1
X88 AVDD VB1 a_2002_4093# AVDD sky130_fd_pr__pfet_01v8_hvt ad=0.29 pd=2.58 as=0.145 ps=1.29 w=1 l=1
X89 AVDD VB1 a_2712_4093# AVDD sky130_fd_pr__pfet_01v8_hvt ad=0.145 pd=1.29 as=0.145 ps=1.29 w=1 l=1
X90 VB1 VB1 a_3228_n962# AVDD sky130_fd_pr__pfet_01v8_hvt ad=0.145 pd=1.29 as=0.145 ps=1.29 w=1 l=1
X91 a_3228_n1581# VB1 AVDD AVDD sky130_fd_pr__pfet_01v8_hvt ad=0.145 pd=1.29 as=0.145 ps=1.29 w=1 l=1
X92 a_777_5589# AVDD AVDD AVDD sky130_fd_pr__pfet_01v8_hvt ad=0.145 pd=1.29 as=0.29 ps=2.58 w=1 l=1
X93 a_3228_1968# VB1 AVDD AVDD sky130_fd_pr__pfet_01v8_hvt ad=0.145 pd=1.29 as=0.145 ps=1.29 w=1 l=1
X94 a_1486_n1581# VB1 AVDD AVDD sky130_fd_pr__pfet_01v8_hvt ad=0.145 pd=1.29 as=0.29 ps=2.58 w=1 l=1
X95 AVDD AVDD a_1486_n5336# AVDD sky130_fd_pr__pfet_01v8_hvt ad=0.145 pd=1.29 as=0.145 ps=1.29 w=1 l=1
X96 AVDD AVDD a_3744_5589# AVDD sky130_fd_pr__pfet_01v8_hvt ad=0.29 pd=2.58 as=0.145 ps=1.29 w=1 l=1
X97 VB2 VB1 a_4454_3476# AVDD sky130_fd_pr__pfet_01v8_hvt ad=0.145 pd=1.29 as=0.145 ps=1.29 w=1 l=1
X98 a_5680_2589# AVDD AVDD AVDD sky130_fd_pr__pfet_01v8_hvt ad=0.145 pd=1.29 as=0.29 ps=2.58 w=1 l=1
X99 a_3744_5589# AVDD AVDD AVDD sky130_fd_pr__pfet_01v8_hvt ad=0.145 pd=1.29 as=0.145 ps=1.29 w=1 l=1
X100 a_4454_3476# VB1 AVDD AVDD sky130_fd_pr__pfet_01v8_hvt ad=0.145 pd=1.29 as=0.29 ps=2.58 w=1 l=1
X101 a_3744_599# VB1 VB1 AVDD sky130_fd_pr__pfet_01v8_hvt ad=0.145 pd=1.29 as=0.145 ps=1.29 w=1 l=1
X102 a_777_n2468# AVDD AVDD AVDD sky130_fd_pr__pfet_01v8_hvt ad=0.145 pd=1.29 as=0.29 ps=2.58 w=1 l=1
X103 a_2002_1220# VB1 VB1 AVDD sky130_fd_pr__pfet_01v8_hvt ad=0.145 pd=1.29 as=0.145 ps=1.29 w=1 l=1
X104 AVDD AVDD a_3228_5589# AVDD sky130_fd_pr__pfet_01v8_hvt ad=0.145 pd=1.29 as=0.145 ps=1.29 w=1 l=1
X105 a_3228_4093# VB1 AVDD AVDD sky130_fd_pr__pfet_01v8_hvt ad=0.145 pd=1.29 as=0.145 ps=1.29 w=1 l=1
X106 AVDD VB1 a_2002_n4589# AVDD sky130_fd_pr__pfet_01v8_hvt ad=0.29 pd=2.58 as=0.145 ps=1.29 w=1 l=1
X107 VB1 VB1 a_1486_1220# AVDD sky130_fd_pr__pfet_01v8_hvt ad=0.145 pd=1.29 as=0.145 ps=1.29 w=1 l=1
X108 a_2712_134# VB1 VB1 AVDD sky130_fd_pr__pfet_01v8_hvt ad=0.145 pd=1.29 as=0.29 ps=2.58 w=1 l=1
X109 AVDD AVDD a_777_n1581# AVDD sky130_fd_pr__pfet_01v8_hvt ad=0.29 pd=2.58 as=0.145 ps=1.29 w=1 l=1
X110 AVDD AVDD a_5680_n1581# AVDD sky130_fd_pr__pfet_01v8_hvt ad=0.29 pd=2.58 as=0.145 ps=1.29 w=1 l=1
X111 a_1486_1220# VB1 AVDD AVDD sky130_fd_pr__pfet_01v8_hvt ad=0.145 pd=1.29 as=0.29 ps=2.58 w=1 l=1
X112 a_3744_n3085# VB1 VB2 AVDD sky130_fd_pr__pfet_01v8_hvt ad=0.145 pd=1.29 as=0.145 ps=1.29 w=1 l=1
X113 VB2 VB1 a_4454_4980# AVDD sky130_fd_pr__pfet_01v8_hvt ad=0.145 pd=1.29 as=0.145 ps=1.29 w=1 l=1
X114 AVDD AVDD a_777_2589# AVDD sky130_fd_pr__pfet_01v8_hvt ad=0.29 pd=2.58 as=0.145 ps=1.29 w=1 l=1
X115 a_4970_134# VB1 VB1 AVDD sky130_fd_pr__pfet_01v8_hvt ad=0.145 pd=1.29 as=0.145 ps=1.29 w=1 l=1
X116 a_4454_n3085# VB1 AVDD AVDD sky130_fd_pr__pfet_01v8_hvt ad=0.145 pd=1.29 as=0.29 ps=2.58 w=1 l=1
X117 a_5680_1968# AVDD AVDD AVDD sky130_fd_pr__pfet_01v8_hvt ad=0.145 pd=1.29 as=0.29 ps=2.58 w=1 l=1
X118 a_777_2589# AVDD AVDD AVDD sky130_fd_pr__pfet_01v8_hvt ad=0.145 pd=1.29 as=0.29 ps=2.58 w=1 l=1
X119 a_5680_599# AVDD AVDD AVDD sky130_fd_pr__pfet_01v8_hvt ad=0.145 pd=1.29 as=0.29 ps=2.58 w=1 l=1
X120 a_4454_4980# VB1 AVDD AVDD sky130_fd_pr__pfet_01v8_hvt ad=0.145 pd=1.29 as=0.29 ps=2.58 w=1 l=1
X121 AVDD VB1 a_3744_2589# AVDD sky130_fd_pr__pfet_01v8_hvt ad=0.29 pd=2.58 as=0.145 ps=1.29 w=1 l=1
X122 a_777_n3972# AVDD AVDD AVDD sky130_fd_pr__pfet_01v8_hvt ad=0.145 pd=1.29 as=0.29 ps=2.58 w=1 l=1
X123 a_2712_n495# VB1 VB1 AVDD sky130_fd_pr__pfet_01v8_hvt ad=0.145 pd=1.29 as=0.29 ps=2.58 w=1 l=1
X124 a_1486_134# VB1 AVDD AVDD sky130_fd_pr__pfet_01v8_hvt ad=0.145 pd=1.29 as=0.29 ps=2.58 w=1 l=1
X125 a_3228_134# VB1 AVDD AVDD sky130_fd_pr__pfet_01v8_hvt ad=0.145 pd=1.29 as=0.145 ps=1.29 w=1 l=1
X126 a_4970_n4589# VB1 VB3 AVDD sky130_fd_pr__pfet_01v8_hvt ad=0.145 pd=1.29 as=0.145 ps=1.29 w=1 l=1
X127 VB3 VB1 a_1486_n3085# AVDD sky130_fd_pr__pfet_01v8_hvt ad=0.145 pd=1.29 as=0.145 ps=1.29 w=1 l=1
X128 a_3744_2589# VB1 VB2 AVDD sky130_fd_pr__pfet_01v8_hvt ad=0.145 pd=1.29 as=0.145 ps=1.29 w=1 l=1
X129 a_2002_n962# VB1 VB1 AVDD sky130_fd_pr__pfet_01v8_hvt ad=0.145 pd=1.29 as=0.145 ps=1.29 w=1 l=1
X130 a_5680_n4589# AVDD AVDD AVDD sky130_fd_pr__pfet_01v8_hvt ad=0.145 pd=1.29 as=0.29 ps=2.58 w=1 l=1
X131 a_5680_4093# AVDD AVDD AVDD sky130_fd_pr__pfet_01v8_hvt ad=0.145 pd=1.29 as=0.29 ps=2.58 w=1 l=1
X132 VB2 VB1 a_3228_2589# AVDD sky130_fd_pr__pfet_01v8_hvt ad=0.145 pd=1.29 as=0.145 ps=1.29 w=1 l=1
X133 AVDD AVDD a_2002_n5336# AVDD sky130_fd_pr__pfet_01v8_hvt ad=0.29 pd=2.58 as=0.145 ps=1.29 w=1 l=1
X134 VB1 VB1 a_1486_n962# AVDD sky130_fd_pr__pfet_01v8_hvt ad=0.145 pd=1.29 as=0.145 ps=1.29 w=1 l=1
X135 AVDD VB1 a_3744_n4589# AVDD sky130_fd_pr__pfet_01v8_hvt ad=0.29 pd=2.58 as=0.145 ps=1.29 w=1 l=1
X136 AVDD AVDD a_777_1968# AVDD sky130_fd_pr__pfet_01v8_hvt ad=0.29 pd=2.58 as=0.145 ps=1.29 w=1 l=1
X137 a_4970_n495# VB1 VB1 AVDD sky130_fd_pr__pfet_01v8_hvt ad=0.145 pd=1.29 as=0.145 ps=1.29 w=1 l=1
X138 VB3 VB1 a_4454_n4589# AVDD sky130_fd_pr__pfet_01v8_hvt ad=0.145 pd=1.29 as=0.145 ps=1.29 w=1 l=1
X139 AVDD VB1 a_3744_134# AVDD sky130_fd_pr__pfet_01v8_hvt ad=0.29 pd=2.58 as=0.145 ps=1.29 w=1 l=1
X140 a_1486_n962# VB1 AVDD AVDD sky130_fd_pr__pfet_01v8_hvt ad=0.145 pd=1.29 as=0.29 ps=2.58 w=1 l=1
X141 AVDD VB1 a_2712_n4589# AVDD sky130_fd_pr__pfet_01v8_hvt ad=0.145 pd=1.29 as=0.145 ps=1.29 w=1 l=1
X142 a_777_1968# AVDD AVDD AVDD sky130_fd_pr__pfet_01v8_hvt ad=0.145 pd=1.29 as=0.29 ps=2.58 w=1 l=1
X143 a_2002_5589# AVDD AVDD AVDD sky130_fd_pr__pfet_01v8_hvt ad=0.145 pd=1.29 as=0.145 ps=1.29 w=1 l=1
X144 AVDD VB1 a_3744_1968# AVDD sky130_fd_pr__pfet_01v8_hvt ad=0.29 pd=2.58 as=0.145 ps=1.29 w=1 l=1
X145 a_777_599# AVDD AVDD AVDD sky130_fd_pr__pfet_01v8_hvt ad=0.145 pd=1.29 as=0.29 ps=2.58 w=1 l=1
X146 AVDD VB1 a_2712_599# AVDD sky130_fd_pr__pfet_01v8_hvt ad=0.145 pd=1.29 as=0.145 ps=1.29 w=1 l=1
X147 a_2712_3476# VB1 VB3 AVDD sky130_fd_pr__pfet_01v8_hvt ad=0.145 pd=1.29 as=0.29 ps=2.58 w=1 l=1
X148 VB1 VB1 a_4454_1220# AVDD sky130_fd_pr__pfet_01v8_hvt ad=0.145 pd=1.29 as=0.145 ps=1.29 w=1 l=1
X149 VB1 VB1 a_4454_599# AVDD sky130_fd_pr__pfet_01v8_hvt ad=0.145 pd=1.29 as=0.145 ps=1.29 w=1 l=1
X150 AVDD AVDD a_1486_5589# AVDD sky130_fd_pr__pfet_01v8_hvt ad=0.145 pd=1.29 as=0.145 ps=1.29 w=1 l=1
X151 a_3744_1968# VB1 VB3 AVDD sky130_fd_pr__pfet_01v8_hvt ad=0.145 pd=1.29 as=0.145 ps=1.29 w=1 l=1
X152 a_2002_n4589# VB1 VB3 AVDD sky130_fd_pr__pfet_01v8_hvt ad=0.145 pd=1.29 as=0.145 ps=1.29 w=1 l=1
X153 AVDD AVDD a_777_4093# AVDD sky130_fd_pr__pfet_01v8_hvt ad=0.29 pd=2.58 as=0.145 ps=1.29 w=1 l=1
X154 a_2712_n4589# VB1 VB2 AVDD sky130_fd_pr__pfet_01v8_hvt ad=0.145 pd=1.29 as=0.29 ps=2.58 w=1 l=1
X155 AVDD VB1 a_4970_n2468# AVDD sky130_fd_pr__pfet_01v8_hvt ad=0.29 pd=2.58 as=0.145 ps=1.29 w=1 l=1
X156 a_4454_1220# VB1 AVDD AVDD sky130_fd_pr__pfet_01v8_hvt ad=0.145 pd=1.29 as=0.29 ps=2.58 w=1 l=1
X157 AVDD VB1 a_4970_n495# AVDD sky130_fd_pr__pfet_01v8_hvt ad=0.29 pd=2.58 as=0.145 ps=1.29 w=1 l=1
X158 AVDD AVDD a_5680_n495# AVDD sky130_fd_pr__pfet_01v8_hvt ad=0.29 pd=2.58 as=0.145 ps=1.29 w=1 l=1
X159 a_4970_n5336# AVDD AVDD AVDD sky130_fd_pr__pfet_01v8_hvt ad=0.145 pd=1.29 as=0.145 ps=1.29 w=1 l=1
X160 VB3 VB1 a_3228_n2468# AVDD sky130_fd_pr__pfet_01v8_hvt ad=0.145 pd=1.29 as=0.145 ps=1.29 w=1 l=1
X161 a_1486_5589# AVDD AVDD AVDD sky130_fd_pr__pfet_01v8_hvt ad=0.145 pd=1.29 as=0.29 ps=2.58 w=1 l=1
X162 VB3 VB1 a_3228_1968# AVDD sky130_fd_pr__pfet_01v8_hvt ad=0.145 pd=1.29 as=0.145 ps=1.29 w=1 l=1
X163 a_5680_n5336# AVDD AVDD AVDD sky130_fd_pr__pfet_01v8_hvt ad=0.145 pd=1.29 as=0.29 ps=2.58 w=1 l=1
X164 a_777_4093# AVDD AVDD AVDD sky130_fd_pr__pfet_01v8_hvt ad=0.145 pd=1.29 as=0.29 ps=2.58 w=1 l=1
X165 AVDD VB1 a_3744_4093# AVDD sky130_fd_pr__pfet_01v8_hvt ad=0.29 pd=2.58 as=0.145 ps=1.29 w=1 l=1
X166 a_4970_3476# VB1 VB2 AVDD sky130_fd_pr__pfet_01v8_hvt ad=0.145 pd=1.29 as=0.145 ps=1.29 w=1 l=1
X167 a_3744_n1581# VB1 VB2 AVDD sky130_fd_pr__pfet_01v8_hvt ad=0.145 pd=1.29 as=0.145 ps=1.29 w=1 l=1
X168 a_3744_4093# VB1 VB2 AVDD sky130_fd_pr__pfet_01v8_hvt ad=0.145 pd=1.29 as=0.145 ps=1.29 w=1 l=1
X169 VB1 VB1 a_3228_599# AVDD sky130_fd_pr__pfet_01v8_hvt ad=0.145 pd=1.29 as=0.145 ps=1.29 w=1 l=1
X170 AVDD AVDD a_3744_n5336# AVDD sky130_fd_pr__pfet_01v8_hvt ad=0.29 pd=2.58 as=0.145 ps=1.29 w=1 l=1
X171 a_3228_n2468# VB1 AVDD AVDD sky130_fd_pr__pfet_01v8_hvt ad=0.145 pd=1.29 as=0.145 ps=1.29 w=1 l=1
X172 a_4454_n1581# VB1 AVDD AVDD sky130_fd_pr__pfet_01v8_hvt ad=0.145 pd=1.29 as=0.29 ps=2.58 w=1 l=1
X173 AVDD VB1 a_4970_599# AVDD sky130_fd_pr__pfet_01v8_hvt ad=0.29 pd=2.58 as=0.145 ps=1.29 w=1 l=1
X174 AVDD AVDD a_4454_n5336# AVDD sky130_fd_pr__pfet_01v8_hvt ad=0.145 pd=1.29 as=0.145 ps=1.29 w=1 l=1
X175 AVDD AVDD a_2712_n5336# AVDD sky130_fd_pr__pfet_01v8_hvt ad=0.145 pd=1.29 as=0.145 ps=1.29 w=1 l=1
X176 AVDD VB1 a_2002_n3085# AVDD sky130_fd_pr__pfet_01v8_hvt ad=0.29 pd=2.58 as=0.145 ps=1.29 w=1 l=1
X177 a_1486_n2468# VB1 AVDD AVDD sky130_fd_pr__pfet_01v8_hvt ad=0.145 pd=1.29 as=0.29 ps=2.58 w=1 l=1
X178 a_2712_4980# VB1 VB3 AVDD sky130_fd_pr__pfet_01v8_hvt ad=0.145 pd=1.29 as=0.29 ps=2.58 w=1 l=1
X179 VB2 VB1 a_3228_4093# AVDD sky130_fd_pr__pfet_01v8_hvt ad=0.145 pd=1.29 as=0.145 ps=1.29 w=1 l=1
X180 a_2002_599# VB1 VB1 AVDD sky130_fd_pr__pfet_01v8_hvt ad=0.145 pd=1.29 as=0.145 ps=1.29 w=1 l=1
X181 a_2002_2589# VB1 VB3 AVDD sky130_fd_pr__pfet_01v8_hvt ad=0.145 pd=1.29 as=0.145 ps=1.29 w=1 l=1
X182 AVDD AVDD a_5680_134# AVDD sky130_fd_pr__pfet_01v8_hvt ad=0.29 pd=2.58 as=0.145 ps=1.29 w=1 l=1
X183 VB1 VB1 a_4454_n962# AVDD sky130_fd_pr__pfet_01v8_hvt ad=0.145 pd=1.29 as=0.145 ps=1.29 w=1 l=1
X184 AVDD VB1 a_4970_n3972# AVDD sky130_fd_pr__pfet_01v8_hvt ad=0.29 pd=2.58 as=0.145 ps=1.29 w=1 l=1
X185 AVDD VB1 a_4970_3476# AVDD sky130_fd_pr__pfet_01v8_hvt ad=0.29 pd=2.58 as=0.145 ps=1.29 w=1 l=1
X186 AVDD AVDD a_5680_3476# AVDD sky130_fd_pr__pfet_01v8_hvt ad=0.29 pd=2.58 as=0.145 ps=1.29 w=1 l=1
X187 VB3 VB1 a_1486_n1581# AVDD sky130_fd_pr__pfet_01v8_hvt ad=0.145 pd=1.29 as=0.145 ps=1.29 w=1 l=1
X188 a_2002_n5336# AVDD AVDD AVDD sky130_fd_pr__pfet_01v8_hvt ad=0.145 pd=1.29 as=0.145 ps=1.29 w=1 l=1
X189 VB3 VB1 a_3228_n3972# AVDD sky130_fd_pr__pfet_01v8_hvt ad=0.145 pd=1.29 as=0.145 ps=1.29 w=1 l=1
X190 a_2712_n5336# AVDD AVDD AVDD sky130_fd_pr__pfet_01v8_hvt ad=0.145 pd=1.29 as=0.29 ps=2.58 w=1 l=1
X191 VB3 VB1 a_1486_2589# AVDD sky130_fd_pr__pfet_01v8_hvt ad=0.145 pd=1.29 as=0.145 ps=1.29 w=1 l=1
X192 a_4454_n962# VB1 AVDD AVDD sky130_fd_pr__pfet_01v8_hvt ad=0.145 pd=1.29 as=0.29 ps=2.58 w=1 l=1
X193 a_4970_4980# VB1 VB2 AVDD sky130_fd_pr__pfet_01v8_hvt ad=0.145 pd=1.29 as=0.145 ps=1.29 w=1 l=1
X194 AVDD AVDD a_777_n2468# AVDD sky130_fd_pr__pfet_01v8_hvt ad=0.29 pd=2.58 as=0.145 ps=1.29 w=1 l=1
X195 a_1486_2589# VB1 AVDD AVDD sky130_fd_pr__pfet_01v8_hvt ad=0.145 pd=1.29 as=0.29 ps=2.58 w=1 l=1
X196 AVDD AVDD a_777_134# AVDD sky130_fd_pr__pfet_01v8_hvt ad=0.29 pd=2.58 as=0.145 ps=1.29 w=1 l=1
X197 a_3228_n3972# VB1 AVDD AVDD sky130_fd_pr__pfet_01v8_hvt ad=0.145 pd=1.29 as=0.145 ps=1.29 w=1 l=1
X198 a_1486_n3972# VB1 AVDD AVDD sky130_fd_pr__pfet_01v8_hvt ad=0.145 pd=1.29 as=0.29 ps=2.58 w=1 l=1
X199 AVDD AVDD a_5680_n2468# AVDD sky130_fd_pr__pfet_01v8_hvt ad=0.29 pd=2.58 as=0.145 ps=1.29 w=1 l=1
X200 AVDD AVDD a_4454_5589# AVDD sky130_fd_pr__pfet_01v8_hvt ad=0.145 pd=1.29 as=0.145 ps=1.29 w=1 l=1
X201 AVDD VB1 a_2002_n495# AVDD sky130_fd_pr__pfet_01v8_hvt ad=0.29 pd=2.58 as=0.145 ps=1.29 w=1 l=1
X202 AVDD VB1 a_2712_n495# AVDD sky130_fd_pr__pfet_01v8_hvt ad=0.145 pd=1.29 as=0.145 ps=1.29 w=1 l=1
X203 a_4970_n3085# VB1 VB3 AVDD sky130_fd_pr__pfet_01v8_hvt ad=0.145 pd=1.29 as=0.145 ps=1.29 w=1 l=1
X204 a_5680_n3085# AVDD AVDD AVDD sky130_fd_pr__pfet_01v8_hvt ad=0.145 pd=1.29 as=0.29 ps=2.58 w=1 l=1
X205 a_4454_5589# AVDD AVDD AVDD sky130_fd_pr__pfet_01v8_hvt ad=0.145 pd=1.29 as=0.29 ps=2.58 w=1 l=1
X206 a_2002_1968# VB1 VB2 AVDD sky130_fd_pr__pfet_01v8_hvt ad=0.145 pd=1.29 as=0.145 ps=1.29 w=1 l=1
X207 AVDD VB1 a_4970_4980# AVDD sky130_fd_pr__pfet_01v8_hvt ad=0.29 pd=2.58 as=0.145 ps=1.29 w=1 l=1
X208 AVDD AVDD a_5680_4980# AVDD sky130_fd_pr__pfet_01v8_hvt ad=0.29 pd=2.58 as=0.145 ps=1.29 w=1 l=1
X209 a_2712_1220# VB1 VB1 AVDD sky130_fd_pr__pfet_01v8_hvt ad=0.145 pd=1.29 as=0.29 ps=2.58 w=1 l=1
X210 a_777_n4589# AVDD AVDD AVDD sky130_fd_pr__pfet_01v8_hvt ad=0.145 pd=1.29 as=0.29 ps=2.58 w=1 l=1
X211 AVDD VB1 a_3744_n3085# AVDD sky130_fd_pr__pfet_01v8_hvt ad=0.29 pd=2.58 as=0.145 ps=1.29 w=1 l=1
X212 VB3 VB1 a_4454_n3085# AVDD sky130_fd_pr__pfet_01v8_hvt ad=0.145 pd=1.29 as=0.145 ps=1.29 w=1 l=1
X213 VB2 VB1 a_1486_1968# AVDD sky130_fd_pr__pfet_01v8_hvt ad=0.145 pd=1.29 as=0.145 ps=1.29 w=1 l=1
X214 AVDD VB1 a_2712_n3085# AVDD sky130_fd_pr__pfet_01v8_hvt ad=0.145 pd=1.29 as=0.145 ps=1.29 w=1 l=1
X215 a_1486_1968# VB1 AVDD AVDD sky130_fd_pr__pfet_01v8_hvt ad=0.145 pd=1.29 as=0.29 ps=2.58 w=1 l=1
X216 a_3744_134# VB1 VB1 AVDD sky130_fd_pr__pfet_01v8_hvt ad=0.145 pd=1.29 as=0.145 ps=1.29 w=1 l=1
X217 a_3228_n495# VB1 AVDD AVDD sky130_fd_pr__pfet_01v8_hvt ad=0.145 pd=1.29 as=0.145 ps=1.29 w=1 l=1
X218 AVDD AVDD a_777_n3972# AVDD sky130_fd_pr__pfet_01v8_hvt ad=0.29 pd=2.58 as=0.145 ps=1.29 w=1 l=1
X219 AVDD AVDD a_5680_n3972# AVDD sky130_fd_pr__pfet_01v8_hvt ad=0.29 pd=2.58 as=0.145 ps=1.29 w=1 l=1
X220 a_2002_4093# VB1 VB3 AVDD sky130_fd_pr__pfet_01v8_hvt ad=0.145 pd=1.29 as=0.145 ps=1.29 w=1 l=1
X221 AVDD VB1 a_2002_3476# AVDD sky130_fd_pr__pfet_01v8_hvt ad=0.29 pd=2.58 as=0.145 ps=1.29 w=1 l=1
X222 AVDD VB1 a_2712_3476# AVDD sky130_fd_pr__pfet_01v8_hvt ad=0.145 pd=1.29 as=0.145 ps=1.29 w=1 l=1
X223 a_2002_n3085# VB1 VB3 AVDD sky130_fd_pr__pfet_01v8_hvt ad=0.145 pd=1.29 as=0.145 ps=1.29 w=1 l=1
X224 a_4970_1220# VB1 VB1 AVDD sky130_fd_pr__pfet_01v8_hvt ad=0.145 pd=1.29 as=0.145 ps=1.29 w=1 l=1
X225 a_4454_599# VB1 AVDD AVDD sky130_fd_pr__pfet_01v8_hvt ad=0.145 pd=1.29 as=0.29 ps=2.58 w=1 l=1
X226 a_2712_n3085# VB1 VB2 AVDD sky130_fd_pr__pfet_01v8_hvt ad=0.145 pd=1.29 as=0.29 ps=2.58 w=1 l=1
X227 VB3 VB1 a_1486_4093# AVDD sky130_fd_pr__pfet_01v8_hvt ad=0.145 pd=1.29 as=0.145 ps=1.29 w=1 l=1
X228 AVDD VB1 a_2002_n1581# AVDD sky130_fd_pr__pfet_01v8_hvt ad=0.29 pd=2.58 as=0.145 ps=1.29 w=1 l=1
X229 VB3 VB1 a_4454_2589# AVDD sky130_fd_pr__pfet_01v8_hvt ad=0.145 pd=1.29 as=0.145 ps=1.29 w=1 l=1
X230 a_1486_4093# VB1 AVDD AVDD sky130_fd_pr__pfet_01v8_hvt ad=0.145 pd=1.29 as=0.29 ps=2.58 w=1 l=1
X231 a_4454_2589# VB1 AVDD AVDD sky130_fd_pr__pfet_01v8_hvt ad=0.145 pd=1.29 as=0.29 ps=2.58 w=1 l=1
X232 a_2712_n962# VB1 VB1 AVDD sky130_fd_pr__pfet_01v8_hvt ad=0.145 pd=1.29 as=0.29 ps=2.58 w=1 l=1
X233 a_777_n5336# AVDD AVDD AVDD sky130_fd_pr__pfet_01v8_hvt ad=0.145 pd=1.29 as=0.29 ps=2.58 w=1 l=1
X234 a_3228_3476# VB1 AVDD AVDD sky130_fd_pr__pfet_01v8_hvt ad=0.145 pd=1.29 as=0.145 ps=1.29 w=1 l=1
X235 AVDD VB1 a_4970_1220# AVDD sky130_fd_pr__pfet_01v8_hvt ad=0.29 pd=2.58 as=0.145 ps=1.29 w=1 l=1
X236 AVDD AVDD a_5680_1220# AVDD sky130_fd_pr__pfet_01v8_hvt ad=0.29 pd=2.58 as=0.145 ps=1.29 w=1 l=1
X237 a_5680_134# AVDD AVDD AVDD sky130_fd_pr__pfet_01v8_hvt ad=0.145 pd=1.29 as=0.29 ps=2.58 w=1 l=1
X238 AVDD VB1 a_2002_4980# AVDD sky130_fd_pr__pfet_01v8_hvt ad=0.29 pd=2.58 as=0.145 ps=1.29 w=1 l=1
X239 AVDD VB1 a_2712_4980# AVDD sky130_fd_pr__pfet_01v8_hvt ad=0.145 pd=1.29 as=0.145 ps=1.29 w=1 l=1
X240 a_5680_n495# AVDD AVDD AVDD sky130_fd_pr__pfet_01v8_hvt ad=0.145 pd=1.29 as=0.29 ps=2.58 w=1 l=1
X241 VB1 VB1 a_1486_599# AVDD sky130_fd_pr__pfet_01v8_hvt ad=0.145 pd=1.29 as=0.145 ps=1.29 w=1 l=1
X242 a_3744_n2468# VB1 VB3 AVDD sky130_fd_pr__pfet_01v8_hvt ad=0.145 pd=1.29 as=0.145 ps=1.29 w=1 l=1
X243 a_4970_n1581# VB1 VB3 AVDD sky130_fd_pr__pfet_01v8_hvt ad=0.145 pd=1.29 as=0.145 ps=1.29 w=1 l=1
X244 a_2712_5589# AVDD AVDD AVDD sky130_fd_pr__pfet_01v8_hvt ad=0.145 pd=1.29 as=0.29 ps=2.58 w=1 l=1
X245 VB2 VB1 a_4454_1968# AVDD sky130_fd_pr__pfet_01v8_hvt ad=0.145 pd=1.29 as=0.145 ps=1.29 w=1 l=1
X246 a_4970_n962# VB1 VB1 AVDD sky130_fd_pr__pfet_01v8_hvt ad=0.145 pd=1.29 as=0.145 ps=1.29 w=1 l=1
X247 a_4454_n2468# VB1 AVDD AVDD sky130_fd_pr__pfet_01v8_hvt ad=0.145 pd=1.29 as=0.29 ps=2.58 w=1 l=1
X248 a_5680_n1581# AVDD AVDD AVDD sky130_fd_pr__pfet_01v8_hvt ad=0.145 pd=1.29 as=0.29 ps=2.58 w=1 l=1
X249 AVDD VB1 a_2002_599# AVDD sky130_fd_pr__pfet_01v8_hvt ad=0.29 pd=2.58 as=0.145 ps=1.29 w=1 l=1
X250 a_4454_1968# VB1 AVDD AVDD sky130_fd_pr__pfet_01v8_hvt ad=0.145 pd=1.29 as=0.29 ps=2.58 w=1 l=1
X251 AVDD VB1 a_3744_n1581# AVDD sky130_fd_pr__pfet_01v8_hvt ad=0.29 pd=2.58 as=0.145 ps=1.29 w=1 l=1
X252 VB3 VB1 a_4454_n1581# AVDD sky130_fd_pr__pfet_01v8_hvt ad=0.145 pd=1.29 as=0.145 ps=1.29 w=1 l=1
X253 a_3228_4980# VB1 AVDD AVDD sky130_fd_pr__pfet_01v8_hvt ad=0.145 pd=1.29 as=0.145 ps=1.29 w=1 l=1
X254 a_777_134# AVDD AVDD AVDD sky130_fd_pr__pfet_01v8_hvt ad=0.145 pd=1.29 as=0.29 ps=2.58 w=1 l=1
X255 AVDD VB1 a_2712_n1581# AVDD sky130_fd_pr__pfet_01v8_hvt ad=0.145 pd=1.29 as=0.145 ps=1.29 w=1 l=1
X256 AVDD VB1 a_4970_n4589# AVDD sky130_fd_pr__pfet_01v8_hvt ad=0.29 pd=2.58 as=0.145 ps=1.29 w=1 l=1
X257 VB2 VB1 a_3228_n4589# AVDD sky130_fd_pr__pfet_01v8_hvt ad=0.145 pd=1.29 as=0.145 ps=1.29 w=1 l=1
X258 VB2 VB1 a_1486_n2468# AVDD sky130_fd_pr__pfet_01v8_hvt ad=0.145 pd=1.29 as=0.145 ps=1.29 w=1 l=1
X259 a_4970_5589# AVDD AVDD AVDD sky130_fd_pr__pfet_01v8_hvt ad=0.145 pd=1.29 as=0.145 ps=1.29 w=1 l=1
X260 AVDD VB1 a_2712_134# AVDD sky130_fd_pr__pfet_01v8_hvt ad=0.145 pd=1.29 as=0.145 ps=1.29 w=1 l=1
X261 VB1 VB1 a_4454_134# AVDD sky130_fd_pr__pfet_01v8_hvt ad=0.145 pd=1.29 as=0.145 ps=1.29 w=1 l=1
X262 AVDD AVDD a_777_n495# AVDD sky130_fd_pr__pfet_01v8_hvt ad=0.29 pd=2.58 as=0.145 ps=1.29 w=1 l=1
X263 VB3 VB1 a_4454_4093# AVDD sky130_fd_pr__pfet_01v8_hvt ad=0.145 pd=1.29 as=0.145 ps=1.29 w=1 l=1
X264 a_5680_3476# AVDD AVDD AVDD sky130_fd_pr__pfet_01v8_hvt ad=0.145 pd=1.29 as=0.29 ps=2.58 w=1 l=1
X265 AVDD VB1 a_4970_n962# AVDD sky130_fd_pr__pfet_01v8_hvt ad=0.29 pd=2.58 as=0.145 ps=1.29 w=1 l=1
X266 AVDD AVDD a_5680_n962# AVDD sky130_fd_pr__pfet_01v8_hvt ad=0.29 pd=2.58 as=0.145 ps=1.29 w=1 l=1
X267 a_777_n495# AVDD AVDD AVDD sky130_fd_pr__pfet_01v8_hvt ad=0.145 pd=1.29 as=0.29 ps=2.58 w=1 l=1
X268 a_4454_4093# VB1 AVDD AVDD sky130_fd_pr__pfet_01v8_hvt ad=0.145 pd=1.29 as=0.29 ps=2.58 w=1 l=1
X269 AVDD VB1 a_3744_n495# AVDD sky130_fd_pr__pfet_01v8_hvt ad=0.29 pd=2.58 as=0.145 ps=1.29 w=1 l=1
X270 a_2002_n1581# VB1 VB3 AVDD sky130_fd_pr__pfet_01v8_hvt ad=0.145 pd=1.29 as=0.145 ps=1.29 w=1 l=1
X271 a_3744_n3972# VB1 VB3 AVDD sky130_fd_pr__pfet_01v8_hvt ad=0.145 pd=1.29 as=0.145 ps=1.29 w=1 l=1
X272 a_2712_n1581# VB1 VB2 AVDD sky130_fd_pr__pfet_01v8_hvt ad=0.145 pd=1.29 as=0.29 ps=2.58 w=1 l=1
X273 a_3228_n4589# VB1 AVDD AVDD sky130_fd_pr__pfet_01v8_hvt ad=0.145 pd=1.29 as=0.145 ps=1.29 w=1 l=1
X274 a_4454_n3972# VB1 AVDD AVDD sky130_fd_pr__pfet_01v8_hvt ad=0.145 pd=1.29 as=0.29 ps=2.58 w=1 l=1
X275 a_777_n3085# AVDD AVDD AVDD sky130_fd_pr__pfet_01v8_hvt ad=0.145 pd=1.29 as=0.29 ps=2.58 w=1 l=1
X276 AVDD VB1 a_2002_1220# AVDD sky130_fd_pr__pfet_01v8_hvt ad=0.29 pd=2.58 as=0.145 ps=1.29 w=1 l=1
X277 AVDD VB1 a_2712_1220# AVDD sky130_fd_pr__pfet_01v8_hvt ad=0.145 pd=1.29 as=0.145 ps=1.29 w=1 l=1
X278 a_3744_n495# VB1 VB1 AVDD sky130_fd_pr__pfet_01v8_hvt ad=0.145 pd=1.29 as=0.145 ps=1.29 w=1 l=1
X279 a_1486_n4589# VB1 AVDD AVDD sky130_fd_pr__pfet_01v8_hvt ad=0.145 pd=1.29 as=0.29 ps=2.58 w=1 l=1
X280 AVDD AVDD a_4970_5589# AVDD sky130_fd_pr__pfet_01v8_hvt ad=0.29 pd=2.58 as=0.145 ps=1.29 w=1 l=1
X281 AVDD AVDD a_5680_5589# AVDD sky130_fd_pr__pfet_01v8_hvt ad=0.29 pd=2.58 as=0.145 ps=1.29 w=1 l=1
X282 a_2712_2589# VB1 VB2 AVDD sky130_fd_pr__pfet_01v8_hvt ad=0.145 pd=1.29 as=0.29 ps=2.58 w=1 l=1
X283 VB1 VB1 a_3228_134# AVDD sky130_fd_pr__pfet_01v8_hvt ad=0.145 pd=1.29 as=0.145 ps=1.29 w=1 l=1
X284 VB1 VB1 a_3228_n495# AVDD sky130_fd_pr__pfet_01v8_hvt ad=0.145 pd=1.29 as=0.145 ps=1.29 w=1 l=1
X285 AVDD VB1 a_4970_134# AVDD sky130_fd_pr__pfet_01v8_hvt ad=0.29 pd=2.58 as=0.145 ps=1.29 w=1 l=1
X286 VB2 VB1 a_1486_n3972# AVDD sky130_fd_pr__pfet_01v8_hvt ad=0.145 pd=1.29 as=0.145 ps=1.29 w=1 l=1
X287 AVDD AVDD a_777_3476# AVDD sky130_fd_pr__pfet_01v8_hvt ad=0.29 pd=2.58 as=0.145 ps=1.29 w=1 l=1
X288 a_5680_4980# AVDD AVDD AVDD sky130_fd_pr__pfet_01v8_hvt ad=0.145 pd=1.29 as=0.29 ps=2.58 w=1 l=1
X289 AVDD AVDD a_4970_n5336# AVDD sky130_fd_pr__pfet_01v8_hvt ad=0.29 pd=2.58 as=0.145 ps=1.29 w=1 l=1
X290 a_777_3476# AVDD AVDD AVDD sky130_fd_pr__pfet_01v8_hvt ad=0.145 pd=1.29 as=0.29 ps=2.58 w=1 l=1
X291 a_3228_1220# VB1 AVDD AVDD sky130_fd_pr__pfet_01v8_hvt ad=0.145 pd=1.29 as=0.145 ps=1.29 w=1 l=1
X292 a_2002_134# VB1 VB1 AVDD sky130_fd_pr__pfet_01v8_hvt ad=0.145 pd=1.29 as=0.145 ps=1.29 w=1 l=1
X293 AVDD AVDD a_3228_n5336# AVDD sky130_fd_pr__pfet_01v8_hvt ad=0.145 pd=1.29 as=0.145 ps=1.29 w=1 l=1
X294 AVDD VB1 a_3744_3476# AVDD sky130_fd_pr__pfet_01v8_hvt ad=0.29 pd=2.58 as=0.145 ps=1.29 w=1 l=1